
 ANSYS Mechanical Enterprise                       


 *------------------------------------------------------------------*
 |                                                                  |
 |   W E L C O M E   T O   T H E   A N S Y S (R)  P R O G R A M     |
 |                                                                  |
 *------------------------------------------------------------------*




 ***************************************************************
 *            ANSYS 2020 R2          LEGAL NOTICES             *
 ***************************************************************
 *                                                             *
 * Copyright 1971-2020 ANSYS, Inc.  All rights reserved.       *
 * Unauthorized use, distribution or duplication is            *
 * prohibited.                                                 *
 *                                                             *
 * Ansys is a registered trademark of ANSYS, Inc. or its       *
 * subsidiaries in the United States or other countries.       *
 * See the ANSYS, Inc. online documentation or the ANSYS, Inc. *
 * documentation CD or online help for the complete Legal      *
 * Notice.                                                     *
 *                                                             *
 ***************************************************************
 *                                                             *
 * THIS ANSYS SOFTWARE PRODUCT AND PROGRAM DOCUMENTATION       *
 * INCLUDE TRADE SECRETS AND CONFIDENTIAL AND PROPRIETARY      *
 * PRODUCTS OF ANSYS, INC., ITS SUBSIDIARIES, OR LICENSORS.    *
 * The software products and documentation are furnished by    *
 * ANSYS, Inc. or its subsidiaries under a software license    *
 * agreement that contains provisions concerning               *
 * non-disclosure, copying, length and nature of use,          *
 * compliance with exporting laws, warranties, disclaimers,    *
 * limitations of liability, and remedies, and other           *
 * provisions.  The software products and documentation may be *
 * used, disclosed, transferred, or copied only in accordance  *
 * with the terms and conditions of that software license      *
 * agreement.                                                  *
 *                                                             *
 * ANSYS, Inc. is a UL registered                              *
 * ISO 9001:2015 company.                                      *
 *                                                             *
 ***************************************************************
 *                                                             *
 * This product is subject to U.S. laws governing export and   *
 * re-export.                                                  *
 *                                                             *
 * For U.S. Government users, except as specifically granted   *
 * by the ANSYS, Inc. software license agreement, the use,     *
 * duplication, or disclosure by the United States Government  *
 * is subject to restrictions stated in the ANSYS, Inc.        *
 * software license agreement and FAR 12.212 (for non-DOD      *
 * licenses).                                                  *
 *                                                             *
 ***************************************************************

 2020 R2 
     
 Point Releases and Patches installed:   
     
 ANSYS, Inc. Products 2020 R2
 SpaceClaim 2020 R2  
 Discovery 2020 R2   
 AIM 2020 R2 
 Live (includes SpaceClaim) 2020 R2  
 ANSYS Sherlock 2020 R2  
 Autodyn 2020 R2 
 LS-DYNA 2020 R2 
 CFD-Post only 2020 R2   
 CFX (includes CFD-Post) 2020 R2 
 Chemkin 2020 R2 
 EnSight 2020 R2 
 FENSAP-ICE 2020 R2  
 Fluent (includes CFD-Post) 2020 R2  
 Forte (includes EnSight) 2020 R2
 Polyflow (includes CFD-Post) 2020 R2
 TurboGrid 2020 R2   
 ICEM CFD 2020 R2
 Aqwa 2020 R2
 SPEOS 2020 R2   
 Customization Files for User Programmable Features 2020 R2  
 Mechanical Products 2020 R2 
 Additive 2020 R2
 Icepak (includes CFD-Post) 2020 R2  
 Remote Solve Manager Standalone Services 2020 R2
 Viewer 2020 R2  
 ACIS Geometry Interface 2020 R2 
 AutoCAD Geometry Interface 2020 R2  
 Catia, Version 4 Geometry Interface 2020 R2 
 Catia, Version 5 Geometry Interface 2020 R2 
 Catia, Version 6 Geometry Interface 2020 R2 
 Creo Elements/Direct Modeling Geometry Interface 2020 R2
 Creo Parametric Geometry Interface 2020 R2  
 Inventor Geometry Interface 2020 R2 
 JTOpen Geometry Interface 2020 R2   
 NX Geometry Interface 2020 R2   
 Parasolid Geometry Interface  2020 R2   
 Solid Edge Geometry Interface 2020 R2   
 SOLIDWORKS Geometry Interface 2020 R2   
 ANSYS, Inc. License Manager 2020 R2 


          *****  ANSYS COMMAND LINE ARGUMENTS  *****
  INITIAL JOBNAME              = file                                                                                                                                                                                                                                                    
  BATCH MODE REQUESTED (-b)    = LIST
  INPUT FILE COPY MODE (-c)    = COPY
  DISTRIBUTED MEMORY PARALLEL REQUESTED
       2 PARALLEL PROCESSES REQUESTED WITH SINGLE THREAD PER PROCESS
    TOTAL OF     2 CORES REQUESTED
  INPUT FILE NAME              = C:\Users\mlydon7629\AppData\Local\Temp\11\WB_CCC-S19RD1-01_mlydon7629_15308_2\_ProjectScratch\ScrD0E4\ds.dat
  OUTPUT FILE NAME             = C:\Users\mlydon7629\AppData\Local\Temp\11\WB_CCC-S19RD1-01_mlydon7629_15308_2\_ProjectScratch\ScrD0E4\solve.out

 RELEASE= 2020 R2              BUILD= 20.2      UP20200601   VERSION=WINDOWS x64 
 CURRENT JOBNAME=file0  20:05:01  JUN 19, 2021 CP=      0.344

     1  /batch  
     2  /config,noeldb,1     ! force off writing results to database
     3  ! ANSYS input file written by Workbench version 2020 R2 
     4      
     5  /SYS,"C:\Program Files\ANSYS Inc\v202\\aisol\bin\winx64\Opti.exe" 59285 NEW 
     6      
     7  /CLEAR,NOSTART  
     8  /FILNAME,file_Static22  
     9  resume,,db  
    10  esel,u,ename,,153,156   
    11  esel,r,sfe,pres,-1e100,1e100
    12  *get,_numsfeelem,elem,0,count   
    13  *if,_numsfeelem,ne,0,then   
    14  allsel  
    15  /solu   
    16  bfedele,all, TEMP ! Deletes temperature based body load 
    17  bfdele,all, TEMP ! Deletes temperature based body load  
    18  acel,0.0,0.0,0.0  ! Deletes linear acceleration 
    19  cgom,0.0,0.0,0.0  ! Deletes rotational velocity 
    20  dcgomg,0.0,0.0,0.0  ! Deletes rotational acceleration   
    21  rescontrol,,none				! No multiframe restarts file   
    22  /com,******************* SOLVE FOR LS 1 ****************
    23  outres,erase
    24  outres,all,none 
    25  outres,nsol,last
    26  outres,eangl,last   
    27  outres,etmp,last
    28  outres,veng,last
    29  outres,nload,last  ! Output nodal forces at all time points for Topology Optimization future intent 
    30  ! *********** WB SOLVE COMMAND ***********  
    31  ! check interactive state   
    32  *get,ANSINTER_,active,,int  
    33  *if,ANSINTER_,ne,0,then 
    34  /eof
    35  *endif  
    36  nsubst,1,1,1
    37  ematwrite,yes   
    38  psolve,elform,topo  
    39  fini
    40  /SYS,"C:\Program Files\ANSYS Inc\v202\\aisol\bin\winx64\Opti.exe" 59285 PRES1   
    41  /solu   
    42  /com,****************************************************   
    43  /com,*************** FINISHED SOLVE FOR LS 1 *************  
    44  *get,_wallasol,active,,time,wall
    45      
    46  *else   
    47  /SYS,"C:\Program Files\ANSYS Inc\v202\\aisol\bin\winx64\Opti.exe" 59285 PRES1   
    48  *endif  
    49      
    50  *DIM,notconverged_array,,1  
    51  *vread,notconverged_array(1),notconverged,dat   
    52  (F8.0)  
    53  *SET,notconverged,notconverged_array(1) 
    54  *if,notconverged,ne,1,then  
    55  /eof
    56  *endif  
    57  *dowhile,notconverged   
    58     /CLEAR,NOSTART   
    59     /FILNAME,file_Static22   
    60     resume,,db   
    61     /config,resuprec,0              ! We read the element nodal forces (ENF) from the rst file   
    62                                     ! and need these values in double precision  
    63     /solu
    64     rescontrol,,none				! No multiframe restarts file
    65     /com,******************* SOLVE FOR LS 1 **************** 
    66     outres,erase 
    67     outres,all,none  
    68     outres,nsol,last 
    69     outres,eangl,last
    70     outres,etmp,last 
    71     outres,veng,last 
    72     outres,nload,last  ! Output nodal forces at all time points for Topology Optimization future intent  
    73     ! *********** WB SOLVE COMMAND ***********   
    74     ! check interactive state
    75     *get,ANSINTER_,active,,int   
    76     *if,ANSINTER_,ne,0,then  
    77     /eof 
    78     *endif   
    79     outres, rsol,last
    80     ncnv,,1e+12  
    81     DMPOPTION,rst,no 
    82     TOTYPE,EXTERNAL                 ! Activates modification of element stiffness matrices   
    83     solve
    84     /com,****************************************************
    85     /com,*************** FINISHED SOLVE FOR LS 1 *************   
    86     *get,_wallasol,active,,time,wall 
    87      
    88     finish   
    89      
    90     /SYS,"C:\Program Files\ANSYS Inc\v202\\aisol\bin\winx64\Opti.exe" 59285 TOPO1
    91      
    92     *DIM,notconverged_array,,1   
    93     *vread,notconverged_array(1),notconverged,dat
    94     (F8.0)   
    95     *SET,notconverged,notconverged_array(1)  
    96  *ENDDO  
    97  /FILNAME,file_Static22  
    98  /AUX2   
    99  COMBINE,RST 
   100  finish  
   101  /exit,nosave

 RUN SETUP PROCEDURE FROM FILE= C:\Program Files\ANSYS Inc\v202\ANSYS\apdl\start.ans

 /INPUT FILE= C:\Program Files\ANSYS Inc\v202\ANSYS\apdl\start.ans  LINE=       0



 *** NOTE ***                            CP =       0.453   TIME= 20:05:01
 The /CONFIG,NOELDB command is not valid in a Distributed ANSYS          
 solution.  Command is ignored.                                          

 SYSTEM= 
 "C:\Program Files\ANSYS Inc\v202\\aisol\bin\winx64\Opti.exe" 59285 NEW

 Socket ready!
 Connecting SUCCESS!

 Client

 Sending 'NEW'
 Received 00000001FBCFDB90

 CLEAR ANSYS DATABASE AND RESTART

 ANSYS Mechanical Enterprise                       

 CURRENT JOBNAME REDEFINED AS file_Static22

 *** NOTE ***                            CP =       0.500   TIME= 20:05:02
 The defined jobname (file_Static22) contains a numeric value (0->9) for 
 the last character.  Therefore, when creating local solution files      
 Distributed ANSYS will append an underscore to the jobname prior to     
 appending the MPI rank.                                                 

 RESUME ANSYS DATA FROM FILE NAME=file_Static22.db                                                                                                                                                                                                                                                    

 *** ANSYS GLOBAL STATUS *** 

 TITLE = unsaved_project--Static Structural (A5)                               
 ANALYSIS TYPE =  STATIC (STEADY-STATE)
 NUMBER OF ELEMENT TYPES =     13
     46596 ELEMENTS CURRENTLY SELECTED.  MAX ELEMENT NUMBER =       87252
    216563 NODES CURRENTLY SELECTED.     MAX NODE NUMBER =         268335
         2 COMPONENTS CURRENTLY DEFINED
 MAXIMUM LINEAR PROPERTY NUMBER        =       1
 MAXIMUM REAL CONSTANT SET NUMBER      =       9
 ACTIVE COORDINATE SYSTEM              =       0  (CARTESIAN)  
 NUMBER OF SPECIFIED CONSTRAINTS       =    3476
 NUMBER OF NODAL LOADS                 =       3
 NUMBER OF SPECIFIED SURFACE LOADS     =    2950

 INITIAL JOBNAME = file
 CURRENT JOBNAME = file_Static22

 UNSELECT     FOR ITEM=ENAM COMPONENT=    
  IN RANGE       153 TO        156 STEP          1

      44906  ELEMENTS (OF      46596  DEFINED) SELECTED BY  ESEL  COMMAND.

 RESELECT     FOR ITEM=SFE  COMPONENT=PRES  BETWEEN-0.10000+101 AND  0.10000+101
   KABS=  0.  TOLERANCE=  0.00000    

          0  ELEMENTS (OF      46596  DEFINED) SELECTED BY  ESEL  COMMAND.

 *GET  _NUMSFEELEM  FROM  ELEM  ITEM=COUN           VALUE=  0.00000000    

 *IF  _numsfeelem                       ( =   0.00000     )  NE  
      0                                 ( =   0.00000     )  THEN    

 *ELSE

 SYSTEM= 
 "C:\Program Files\ANSYS Inc\v202\\aisol\bin\winx64\Opti.exe" 59285 PRES1

 Socket ready!
 Connecting SUCCESS!

 Client

 Sending 'PRES1'
 Received 000000717DCFDAF0

 *ENDIF

 SET PARAMETER DIMENSIONS ON  NOTCONVERGED_ARRAY
  TYPE=ARRA  DIMENSIONS=        1        1        1

 VECTOR READ OPERATION  *VREAD  
  notconve READ FROM FILE notconverged.dat
 VECTOR LENGTH=      1
 LOOP DIRECTIONS=IJK   COUNTS=       1       1       1
 FORMAT=(F8.0)                                                                

 PARAMETER NOTCONVERGED =     1.000000000    

 *IF  notconverged                      ( =   1.00000     )  NE  
      1                                 ( =   1.00000     )  THEN    

 *ENDIF

 *DOWHILE LOOP ON PARAMETER= NOTCONVERGED

 CLEAR ANSYS DATABASE AND RESTART

 ANSYS Mechanical Enterprise                       

 CURRENT JOBNAME REDEFINED AS file_Static22

 *** NOTE ***                            CP =       1.078   TIME= 20:05:03
 The defined jobname (file_Static22) contains a numeric value (0->9) for 
 the last character.  Therefore, when creating local solution files      
 Distributed ANSYS will append an underscore to the jobname prior to     
 appending the MPI rank.                                                 

 RESUME ANSYS DATA FROM FILE NAME=file_Static22.db                                                                                                                                                                                                                                                    

 *** ANSYS GLOBAL STATUS *** 

 TITLE = unsaved_project--Static Structural (A5)                               
 ANALYSIS TYPE =  STATIC (STEADY-STATE)
 NUMBER OF ELEMENT TYPES =     13
     46596 ELEMENTS CURRENTLY SELECTED.  MAX ELEMENT NUMBER =       87252
    216563 NODES CURRENTLY SELECTED.     MAX NODE NUMBER =         268335
         2 COMPONENTS CURRENTLY DEFINED
 MAXIMUM LINEAR PROPERTY NUMBER        =       1
 MAXIMUM REAL CONSTANT SET NUMBER      =       9
 ACTIVE COORDINATE SYSTEM              =       0  (CARTESIAN)  
 NUMBER OF SPECIFIED CONSTRAINTS       =    3476
 NUMBER OF NODAL LOADS                 =       3
 NUMBER OF SPECIFIED SURFACE LOADS     =    2950

 INITIAL JOBNAME = file
 CURRENT JOBNAME = file_Static22


 USE DOUBLE PRECISION RESULTS FILE FORMAT

 *****  ANSYS SOLUTION ROUTINE  *****

 DO NOT SAVE ANY RESTART FILES AT ALL
 ******************* SOLVE FOR LS 1 ****************

 ERASE THE CURRENT DATABASE OUTPUT CONTROL TABLE.


 WRITE ALL  ITEMS TO THE DATABASE WITH A FREQUENCY OF NONE
   FOR ALL APPLICABLE ENTITIES

 WRITE NSOL ITEMS TO THE DATABASE WITH A FREQUENCY OF LAST
   FOR ALL APPLICABLE ENTITIES

 WRITE EANG ITEMS TO THE DATABASE WITH A FREQUENCY OF LAST
   FOR ALL APPLICABLE ENTITIES

 WRITE ETMP ITEMS TO THE DATABASE WITH A FREQUENCY OF LAST
   FOR ALL APPLICABLE ENTITIES

 WRITE VENG ITEMS TO THE DATABASE WITH A FREQUENCY OF LAST
   FOR ALL APPLICABLE ENTITIES

 WRITE NLOA ITEMS TO THE DATABASE WITH A FREQUENCY OF LAST
   FOR ALL APPLICABLE ENTITIES

 *GET  ANSINTER_  FROM  ACTI  ITEM=INT        VALUE=  0.00000000    

 *IF  ANSINTER_                         ( =   0.00000     )  NE  
      0                                 ( =   0.00000     )  THEN    

 *ENDIF

 WRITE RSOL ITEMS TO THE DATABASE WITH A FREQUENCY OF LAST
   FOR ALL APPLICABLE ENTITIES

 KEY TO TERMINATE RUN IF NO CONVERGENCE=  1
 DEGREE OF FREEDOM (DISPLACEMENT) LIMIT= 0.10000E+13
 CUMULATIVE ITERATION LIMIT=     0
 ELAPSED TIME LIMIT (SEC)=  0.0000       (  0 HOURS  0 MIN)
 CPU TIME LIMIT (SEC)=  0.0000       (  0 HOURS  0 MIN)

 DO NOT COMBINE RESULT FILES (.rst, .rth, etc.) AFTER DISTRIBUTED PARALLEL SOLUTION

 SET TOPOLOGICAL OPTIMIZATION METHOD TO EXTERNALLY SUPPLIED METHOD

 *** NOTE ***                            CP =       1.250   TIME= 20:05:03
 The automatic domain decomposition logic has selected the MESH domain   
 decomposition method with 2 processes per solution.                     

 *****  ANSYS SOLVE    COMMAND  *****

 *** WARNING ***                         CP =       1.281   TIME= 20:05:03
 Element shape checking is currently inactive.  Issue SHPP,ON or         
 SHPP,WARN to reactivate, if desired.                                    

 *** NOTE ***                            CP =       1.922   TIME= 20:05:04
 The model data was checked and warning messages were found.             
  Please review output or errors file (                                  
 C:\Users\mlydon7629\AppData\Local\Temp\11\WB_CCC-S19RD1-01_mlydon7629_1 
 15308_2\_ProjectScratch\ScrD0E4\file0.err ) for these warning messages. 

 *** SELECTION OF ELEMENT TECHNOLOGIES FOR APPLICABLE ELEMENTS ***
      --- GIVE SUGGESTIONS AND RESET THE KEY OPTIONS ---

 ELEMENT TYPE    1 IS SOLID186. KEYOPT(2)=0 IS SUGGESTED AND HAS BEEN RESET.
  KEYOPT(1-12)=    0    0    0    0    0    0    0    0    0    0    0    0



 *** ANSYS - ENGINEERING ANALYSIS SYSTEM  RELEASE 2020 R2          20.2     ***
 DISTRIBUTED ANSYS Mechanical Enterprise                       

 01066031  VERSION=WINDOWS x64   20:05:04  JUN 19, 2021 CP=      1.922

 unsaved_project--Static Structural (A5)                                       



                       S O L U T I O N   O P T I O N S

   PROBLEM DIMENSIONALITY. . . . . . . . . . . . .3-D                  
   DEGREES OF FREEDOM. . . . . . UX   UY   UZ   ROTX ROTY ROTZ
   ANALYSIS TYPE . . . . . . . . . . . . . . . . .STATIC (STEADY-STATE)
   OFFSET TEMPERATURE FROM ABSOLUTE ZERO . . . . .  273.15    
   EQUATION SOLVER OPTION. . . . . . . . . . . . .PCG                
      TOLERANCE. . . . . . . . . . . . . . . . . . 1.00000E-08
   GLOBALLY ASSEMBLED MATRIX . . . . . . . . . . .SYMMETRIC  

 *** WARNING ***                         CP =       1.953   TIME= 20:05:04
 Material number 2 (used by element 85322) should normally have at least 
 one MP or one TB type command associated with it.  Output of energy by  
 material may not be available.                                          

 *** NOTE ***                            CP =       2.016   TIME= 20:05:04
 The step data was checked and warning messages were found.              
  Please review output or errors file (                                  
 C:\Users\mlydon7629\AppData\Local\Temp\11\WB_CCC-S19RD1-01_mlydon7629_1 
 15308_2\_ProjectScratch\ScrD0E4\file0.err ) for these warning messages. 

 *** NOTE ***                            CP =       2.016   TIME= 20:05:04
 The conditions for direct assembly have been met.  No .emat or .erot    
 files will be produced.                                                 

 *** NOTE ***                            CP =       2.109   TIME= 20:05:04
 Internal nodes from 268336 to 268336 are created.                       
 1 internal nodes are used for handling degrees of freedom on pilot      
 nodes of rigid target surfaces.                                         

 *** NOTE ***                            CP =       2.234   TIME= 20:05:04
 Internal nodes from 268336 to 268336 are created.                       
 1 internal nodes are used for handling degrees of freedom on pilot      
 nodes of rigid target surfaces.                                         

 *** NOTE ***                            CP =       2.281   TIME= 20:05:04
 Force-distributed-surface identified by real constant set 9 and         
 contact element type 9 has been set up.  The pilot node 268335 is used  
 to apply the force.  Internal MPC will be built.                        
 The used degrees of freedom set is  UX   UY   UZ   ROTX ROTY ROTZ
 Please verify constraints (including rotational degrees of freedom)
  on the pilot node by yourself.
 ****************************************
  
  
  

 *** NOTE ***                            CP =       2.391   TIME= 20:05:04
 Internal nodes from 268336 to 268336 are created.                       
 1 internal nodes are used for handling degrees of freedom on pilot      
 nodes of rigid target surfaces.                                         

  
  
     D I S T R I B U T E D   D O M A I N   D E C O M P O S E R
  
  ...Number of elements: 46596
  ...Number of nodes:    216564
  ...Decompose to 2 CPU domains
  ...Element load balance ratio =     1.010


 Topology Optimization: Multipliers prepared


 Topology Optimization: Multipliers updated


                      L O A D   S T E P   O P T I O N S

   LOAD STEP NUMBER. . . . . . . . . . . . . . . .     1
   TIME AT END OF THE LOAD STEP. . . . . . . . . .  1.0000    
   NUMBER OF SUBSTEPS. . . . . . . . . . . . . . .     1
   STEP CHANGE BOUNDARY CONDITIONS . . . . . . . .    NO
   PRINT OUTPUT CONTROLS . . . . . . . . . . . . .NO PRINTOUT
   DATABASE OUTPUT CONTROLS
      ITEM     FREQUENCY   COMPONENT
       ALL       NONE               
      NSOL       LAST               
      EANG       LAST               
      ETMP       LAST               
      VENG       LAST               
      NLOA       LAST               
      RSOL       LAST               


 SOLUTION MONITORING INFO IS WRITTEN TO FILE= file_Static22.mntr                                                                                                                                                                                                                                                  


 *** NOTE ***                            CP =       3.891   TIME= 20:05:05
 The PCG solver has automatically set the level of difficulty for this   
 model to 2.                                                             


                         ***********  PRECISE MASS SUMMARY  ***********

   TOTAL RIGID BODY MASS MATRIX ABOUT ORIGIN
               Translational mass               |   Coupled translational/rotational mass
         6.9900        0.0000        0.0000     |     0.0000      -0.29936E-01  -0.24443E-02
         0.0000        6.9900        0.0000     |    0.29936E-01    0.0000      -0.87641E-11
         0.0000        0.0000        6.9900     |    0.24443E-02   0.87641E-11    0.0000    
     ------------------------------------------ | ------------------------------------------
                                                |         Rotational mass (inertia)
                                                |    0.37439       0.17568E-12   0.12146E-11
                                                |    0.17568E-12   0.36784       0.18648E-03
                                                |    0.12146E-11   0.18648E-03   0.67341E-02

   TOTAL MASS =  6.9900    
     The mass principal axes coincide with the global Cartesian axes

   CENTER OF MASS (X,Y,Z)=  -0.12538E-11   0.34969E-03  -0.42827E-02

   TOTAL INERTIA ABOUT CENTER OF MASS
        0.37426       0.17261E-12   0.12522E-11
        0.17261E-12   0.36771       0.17601E-03
        0.12522E-11   0.17601E-03   0.67333E-02
     The inertia principal axes coincide with the global Cartesian axes


  *** MASS SUMMARY BY ELEMENT TYPE ***

  TYPE      MASS
     1   6.99000    

 Range of element maximum matrix coefficients in global coordinates
 Maximum = 1.549341017E+09 at element 44563.                             
 Minimum = 356268692 at element 43257.                                   

   *** ELEMENT MATRIX FORMULATION TIMES
     TYPE    NUMBER   ENAME      TOTAL CP  AVE CP

        1     44665  SOLID186      8.953   0.000200
        2        20  SURF154       0.016   0.000781
        3        20  SURF154       0.000   0.000000
        4       190  SURF154       0.016   0.000082
        5        25  SURF154       0.000   0.000000
        6        25  SURF154       0.000   0.000000
        7        60  SURF154       0.000   0.000000
        8       290  SURF154       0.016   0.000054
        9       240  CONTA174      0.000   0.000000
       10         1  TARGE170      0.000   0.000000
       11       300  SURF154       0.000   0.000000
       12       160  SURF154       0.016   0.000098
       13       600  SURF154       0.031   0.000052
 Time at end of element matrix formulation CP = 10.3125.                 
 curEqn=  24129  totEqn=  24129 Job CP sec=     11.359
      Factor Done= 100% Factor Wall sec=      0.272 rate=   18059.0 Mflops
 Iteration=    10 Ratio=  0.108208     Limit=  1.000000E-08 Wall=     0.6
 Iteration=    45 Ratio=  6.903830E-04 Limit=  1.000000E-08 Wall=     3.1
 Iteration=    85 Ratio=  1.834346E-06 Limit=  1.000000E-08 Wall=     6.0

 DISTRIBUTED PCG SOLVER SOLUTION CONVERGED

 DISTRIBUTED PCG SOLVER SOLUTION STATISTICS

   NUMBER OF ITERATIONS=         123
   NUMBER OF EQUATIONS =      649698
   LEVEL OF CONVERGENCE=           1
   CALCULATED NORM     = 0.98869E-08
   SPECIFIED TOLERANCE = 0.10000E-07
   TOTAL CPU TIME (sec)=       10.12
   TOTAL WALL TIME(sec)=       10.34
   TOTAL MEMORY (GB)   =        0.56


   *** ELEMENT RESULT CALCULATION TIMES
     TYPE    NUMBER   ENAME      TOTAL CP  AVE CP

        1     44665  SOLID186      3.109   0.000070
        2        20  SURF154       0.000   0.000000
        3        20  SURF154       0.000   0.000000
        4       190  SURF154       0.000   0.000000
        5        25  SURF154       0.000   0.000000
        6        25  SURF154       0.000   0.000000
        7        60  SURF154       0.000   0.000000
        8       290  SURF154       0.016   0.000054
        9       240  CONTA174      0.000   0.000000
       11       300  SURF154       0.000   0.000000
       12       160  SURF154       0.000   0.000000
       13       600  SURF154       0.000   0.000000

   *** NODAL LOAD CALCULATION TIMES
     TYPE    NUMBER   ENAME      TOTAL CP  AVE CP

        1     44665  SOLID186      0.219   0.000005
        2        20  SURF154       0.000   0.000000
        3        20  SURF154       0.000   0.000000
        4       190  SURF154       0.000   0.000000
        5        25  SURF154       0.000   0.000000
        6        25  SURF154       0.000   0.000000
        7        60  SURF154       0.000   0.000000
        8       290  SURF154       0.000   0.000000
        9       240  CONTA174      0.000   0.000000
       11       300  SURF154       0.000   0.000000
       12       160  SURF154       0.000   0.000000
       13       600  SURF154       0.000   0.000000
 *** LOAD STEP     1   SUBSTEP     1  COMPLETED.    CUM ITER =      1
 *** TIME =   1.00000         TIME INC =   1.00000      NEW TRIANG MATRIX


 *** ANSYS BINARY FILE STATISTICS
  BUFFER SIZE USED= 16384
       35.125 MB WRITTEN ON ELEMENT SAVED DATA FILE: file_Static22_0.esav
       32.500 MB WRITTEN ON RESULTS FILE: file_Static22_0.rst
 ****************************************************
 *************** FINISHED SOLVE FOR LS 1 *************

 *GET  _WALLASOL  FROM  ACTI  ITEM=TIME WALL  VALUE=  20.0902778    

 FINISH SOLUTION PROCESSING


 ***** ROUTINE COMPLETED *****  CP =        23.500



 SYSTEM= 
 "C:\Program Files\ANSYS Inc\v202\\aisol\bin\winx64\Opti.exe" 59285 TOPO1

 Socket ready!
 Connecting SUCCESS!

 Client

 Sending 'TOPO1'
 Received 000000CD91AFDD80

 SET PARAMETER DIMENSIONS ON  NOTCONVERGED_ARRAY
  TYPE=ARRA  DIMENSIONS=        1        1        1

 VECTOR READ OPERATION  *VREAD  
  notconve READ FROM FILE notconverged.dat
 VECTOR LENGTH=      1
 LOOP DIRECTIONS=IJK   COUNTS=       1       1       1
 FORMAT=(F8.0)                                                                

 PARAMETER NOTCONVERGED =     1.000000000    

 *ENDDO  INDEX= NOTCONVERGED                    

 CLEAR ANSYS DATABASE AND RESTART

 Topology Optimization: released


 ANSYS Mechanical Enterprise                       

 CURRENT JOBNAME REDEFINED AS file_Static22



 *****  ANSYS SOLUTION ROUTINE  *****
 ******************* SOLVE FOR LS 1 ****************

 ERASE THE CURRENT DATABASE OUTPUT CONTROL TABLE.


 DO NOT COMBINE RESULT FILES (.rst, .rth, etc.) AFTER DISTRIBUTED PARALLEL SOLUTION

 *****  ANSYS SOLVE    COMMAND  *****

 *** WARNING ***                         CP =      23.828   TIME= 20:05:28
 Element shape checking is currently inactive.  Issue SHPP,ON or         
 SHPP,WARN to reactivate, if desired.                                    

 *** SELECTION OF ELEMENT TECHNOLOGIES FOR APPLICABLE ELEMENTS ***
      --- GIVE SUGGESTIONS AND RESET THE KEY OPTIONS ---

 ELEMENT TYPE    1 IS SOLID186. KEYOPT(2)=0 IS SUGGESTED AND HAS BEEN RESET.
  KEYOPT(1-12)=    0    0    0    0    0    0    0    0    0    0    0    0



 *** ANSYS - ENGINEERING ANALYSIS SYSTEM  RELEASE 2020 R2          20.2     ***
 DISTRIBUTED ANSYS Mechanical Enterprise                       

 01066031  VERSION=WINDOWS x64   20:05:28  JUN 19, 2021 CP=     24.453

 unsaved_project--Static Structural (A5)                                       



 *** WARNING ***                         CP =      24.484   TIME= 20:05:28
 Material number 2 (used by element 85322) should normally have at least 
 one MP or one TB type command associated with it.  Output of energy by  
 material may not be available.                                          
 The used degrees of freedom set is  UX   UY   UZ   ROTX ROTY ROTZ
 Please verify constraints (including rotational degrees of freedom)
  on the pilot node by yourself.
 ****************************************
  
  
  

  
  
     D I S T R I B U T E D   D O M A I N   D E C O M P O S E R
  
  ...Number of elements: 46596
  ...Number of nodes:    216564
  ...Decompose to 2 CPU domains
  ...Element load balance ratio =     1.010


 Topology Optimization: Multipliers prepared


 Topology Optimization: Multipliers updated


 SOLUTION MONITORING INFO IS WRITTEN TO FILE= file_Static22.mntr                                                                                                                                                                                                                                                  


 *** NOTE ***                            CP =      26.172   TIME= 20:05:29
 The PCG solver has automatically set the level of difficulty for this   
 model to 2.                                                             


                         ***********  PRECISE MASS SUMMARY  ***********

   TOTAL RIGID BODY MASS MATRIX ABOUT ORIGIN
               Translational mass               |   Coupled translational/rotational mass
         6.9900        0.0000        0.0000     |     0.0000      -0.29936E-01  -0.24443E-02
         0.0000        6.9900        0.0000     |    0.29936E-01    0.0000      -0.87641E-11
         0.0000        0.0000        6.9900     |    0.24443E-02   0.87641E-11    0.0000    
     ------------------------------------------ | ------------------------------------------
                                                |         Rotational mass (inertia)
                                                |    0.37439       0.17568E-12   0.12146E-11
                                                |    0.17568E-12   0.36784       0.18648E-03
                                                |    0.12146E-11   0.18648E-03   0.67341E-02

   TOTAL MASS =  6.9900    
     The mass principal axes coincide with the global Cartesian axes

   CENTER OF MASS (X,Y,Z)=  -0.12538E-11   0.34969E-03  -0.42827E-02

   TOTAL INERTIA ABOUT CENTER OF MASS
        0.37426       0.17261E-12   0.12522E-11
        0.17261E-12   0.36771       0.17601E-03
        0.12522E-11   0.17601E-03   0.67333E-02
     The inertia principal axes coincide with the global Cartesian axes


  *** MASS SUMMARY BY ELEMENT TYPE ***

  TYPE      MASS
     1   6.99000    

 Range of element maximum matrix coefficients in global coordinates
 Maximum = 1.549341017E+09 at element 44563.                             
 Minimum = 356268692 at element 43257.                                   

   *** ELEMENT MATRIX FORMULATION TIMES
     TYPE    NUMBER   ENAME      TOTAL CP  AVE CP

        1     44665  SOLID186      8.516   0.000191
        2        20  SURF154       0.016   0.000781
        3        20  SURF154       0.000   0.000000
        4       190  SURF154       0.000   0.000000
        5        25  SURF154       0.000   0.000000
        6        25  SURF154       0.000   0.000000
        7        60  SURF154       0.000   0.000000
        8       290  SURF154       0.016   0.000054
        9       240  CONTA174      0.000   0.000000
       10         1  TARGE170      0.000   0.000000
       11       300  SURF154       0.016   0.000052
       12       160  SURF154       0.000   0.000000
       13       600  SURF154       0.047   0.000078
 Time at end of element matrix formulation CP = 32.                      
 curEqn=  24129  totEqn=  24129 Job CP sec=     33.016
      Factor Done= 100% Factor Wall sec=      0.271 rate=   18143.0 Mflops
 Iteration=    10 Ratio=  0.103656     Limit=  1.000000E-08 Wall=     0.6
 Iteration=    40 Ratio=  7.262838E-04 Limit=  1.000000E-08 Wall=     2.8
 Iteration=    85 Ratio=  2.035233E-06 Limit=  1.000000E-08 Wall=     6.1

 DISTRIBUTED PCG SOLVER SOLUTION CONVERGED

 DISTRIBUTED PCG SOLVER SOLUTION STATISTICS

   NUMBER OF ITERATIONS=         127
   NUMBER OF EQUATIONS =      649698
   LEVEL OF CONVERGENCE=           1
   CALCULATED NORM     = 0.84297E-08
   SPECIFIED TOLERANCE = 0.10000E-07
   TOTAL CPU TIME (sec)=       10.33
   TOTAL WALL TIME(sec)=       10.59
   TOTAL MEMORY (GB)   =        0.56


   *** ELEMENT RESULT CALCULATION TIMES
     TYPE    NUMBER   ENAME      TOTAL CP  AVE CP

        1     44665  SOLID186      3.078   0.000069
        2        20  SURF154       0.000   0.000000
        3        20  SURF154       0.000   0.000000
        4       190  SURF154       0.000   0.000000
        5        25  SURF154       0.000   0.000000
        6        25  SURF154       0.000   0.000000
        7        60  SURF154       0.000   0.000000
        8       290  SURF154       0.000   0.000000
        9       240  CONTA174      0.000   0.000000
       11       300  SURF154       0.000   0.000000
       12       160  SURF154       0.000   0.000000
       13       600  SURF154       0.031   0.000052

   *** NODAL LOAD CALCULATION TIMES
     TYPE    NUMBER   ENAME      TOTAL CP  AVE CP

        1     44665  SOLID186      0.109   0.000002
        2        20  SURF154       0.000   0.000000
        3        20  SURF154       0.000   0.000000
        4       190  SURF154       0.000   0.000000
        5        25  SURF154       0.000   0.000000
        6        25  SURF154       0.000   0.000000
        7        60  SURF154       0.000   0.000000
        8       290  SURF154       0.016   0.000054
        9       240  CONTA174      0.000   0.000000
       11       300  SURF154       0.000   0.000000
       12       160  SURF154       0.000   0.000000
       13       600  SURF154       0.000   0.000000
 *** LOAD STEP     1   SUBSTEP     1  COMPLETED.    CUM ITER =      1
 *** TIME =   1.00000         TIME INC =   1.00000      NEW TRIANG MATRIX


 *** ANSYS BINARY FILE STATISTICS
  BUFFER SIZE USED= 16384
       35.125 MB WRITTEN ON ELEMENT SAVED DATA FILE: file_Static22_0.esav
       32.500 MB WRITTEN ON RESULTS FILE: file_Static22_0.rst
 ****************************************************
 *************** FINISHED SOLVE FOR LS 1 *************

 FINISH SOLUTION PROCESSING


 ***** ROUTINE COMPLETED *****  CP =        45.344


 Socket ready!
 Connecting SUCCESS!

 Client

 Sending 'TOPO1'
 Received 0000009E9A4FDBB0

 CLEAR ANSYS DATABASE AND RESTART

 Topology Optimization: released


 ANSYS Mechanical Enterprise                       

 CURRENT JOBNAME REDEFINED AS file_Static22



 *****  ANSYS SOLUTION ROUTINE  *****
 ******************* SOLVE FOR LS 1 ****************

 ERASE THE CURRENT DATABASE OUTPUT CONTROL TABLE.


 DO NOT COMBINE RESULT FILES (.rst, .rth, etc.) AFTER DISTRIBUTED PARALLEL SOLUTION

 *****  ANSYS SOLVE    COMMAND  *****

 *** WARNING ***                         CP =      45.609   TIME= 20:05:51
 Element shape checking is currently inactive.  Issue SHPP,ON or         
 SHPP,WARN to reactivate, if desired.                                    

 *** SELECTION OF ELEMENT TECHNOLOGIES FOR APPLICABLE ELEMENTS ***
      --- GIVE SUGGESTIONS AND RESET THE KEY OPTIONS ---

 ELEMENT TYPE    1 IS SOLID186. KEYOPT(2)=0 IS SUGGESTED AND HAS BEEN RESET.
  KEYOPT(1-12)=    0    0    0    0    0    0    0    0    0    0    0    0



 *** ANSYS - ENGINEERING ANALYSIS SYSTEM  RELEASE 2020 R2          20.2     ***
 DISTRIBUTED ANSYS Mechanical Enterprise                       

 01066031  VERSION=WINDOWS x64   20:05:51  JUN 19, 2021 CP=     46.188

 unsaved_project--Static Structural (A5)                                       



 *** WARNING ***                         CP =      46.219   TIME= 20:05:51
 Material number 2 (used by element 85322) should normally have at least 
 one MP or one TB type command associated with it.  Output of energy by  
 material may not be available.                                          
 The used degrees of freedom set is  UX   UY   UZ   ROTX ROTY ROTZ
 Please verify constraints (including rotational degrees of freedom)
  on the pilot node by yourself.
 ****************************************
  
  
  

  
  
     D I S T R I B U T E D   D O M A I N   D E C O M P O S E R
  
  ...Number of elements: 46596
  ...Number of nodes:    216564
  ...Decompose to 2 CPU domains
  ...Element load balance ratio =     1.010


 Topology Optimization: Multipliers prepared


 Topology Optimization: Multipliers updated


 SOLUTION MONITORING INFO IS WRITTEN TO FILE= file_Static22.mntr                                                                                                                                                                                                                                                  


 *** NOTE ***                            CP =      47.953   TIME= 20:05:52
 The PCG solver has automatically set the level of difficulty for this   
 model to 2.                                                             


                         ***********  PRECISE MASS SUMMARY  ***********

   TOTAL RIGID BODY MASS MATRIX ABOUT ORIGIN
               Translational mass               |   Coupled translational/rotational mass
         6.9900        0.0000        0.0000     |     0.0000      -0.29936E-01  -0.24443E-02
         0.0000        6.9900        0.0000     |    0.29936E-01    0.0000      -0.87641E-11
         0.0000        0.0000        6.9900     |    0.24443E-02   0.87641E-11    0.0000    
     ------------------------------------------ | ------------------------------------------
                                                |         Rotational mass (inertia)
                                                |    0.37439       0.17568E-12   0.12146E-11
                                                |    0.17568E-12   0.36784       0.18648E-03
                                                |    0.12146E-11   0.18648E-03   0.67341E-02

   TOTAL MASS =  6.9900    
     The mass principal axes coincide with the global Cartesian axes

   CENTER OF MASS (X,Y,Z)=  -0.12538E-11   0.34969E-03  -0.42827E-02

   TOTAL INERTIA ABOUT CENTER OF MASS
        0.37426       0.17261E-12   0.12522E-11
        0.17261E-12   0.36771       0.17601E-03
        0.12522E-11   0.17601E-03   0.67333E-02
     The inertia principal axes coincide with the global Cartesian axes


  *** MASS SUMMARY BY ELEMENT TYPE ***

  TYPE      MASS
     1   6.99000    

 Range of element maximum matrix coefficients in global coordinates
 Maximum = 1.549341017E+09 at element 44563.                             
 Minimum = 356268692 at element 43257.                                   

   *** ELEMENT MATRIX FORMULATION TIMES
     TYPE    NUMBER   ENAME      TOTAL CP  AVE CP

        1     44665  SOLID186      8.500   0.000190
        2        20  SURF154       0.000   0.000000
        3        20  SURF154       0.000   0.000000
        4       190  SURF154       0.000   0.000000
        5        25  SURF154       0.000   0.000000
        6        25  SURF154       0.016   0.000625
        7        60  SURF154       0.000   0.000000
        8       290  SURF154       0.000   0.000000
        9       240  CONTA174      0.000   0.000000
       10         1  TARGE170      0.000   0.000000
       11       300  SURF154       0.016   0.000052
       12       160  SURF154       0.016   0.000098
       13       600  SURF154       0.016   0.000026
 Time at end of element matrix formulation CP = 53.8125.                 
 curEqn=  24129  totEqn=  24129 Job CP sec=     54.797
      Factor Done= 100% Factor Wall sec=      0.251 rate=   19567.2 Mflops
 Iteration=    10 Ratio=  0.103150     Limit=  1.000000E-08 Wall=     0.6
 Iteration=    40 Ratio=  9.222552E-04 Limit=  1.000000E-08 Wall=     2.8
 Iteration=   110 Ratio=  2.743425E-06 Limit=  1.000000E-08 Wall=     7.8

 DISTRIBUTED PCG SOLVER SOLUTION CONVERGED

 DISTRIBUTED PCG SOLVER SOLUTION STATISTICS

   NUMBER OF ITERATIONS=         167
   NUMBER OF EQUATIONS =      649698
   LEVEL OF CONVERGENCE=           1
   CALCULATED NORM     = 0.95871E-08
   SPECIFIED TOLERANCE = 0.10000E-07
   TOTAL CPU TIME (sec)=       13.27
   TOTAL WALL TIME(sec)=       13.48
   TOTAL MEMORY (GB)   =        0.56


   *** ELEMENT RESULT CALCULATION TIMES
     TYPE    NUMBER   ENAME      TOTAL CP  AVE CP

        1     44665  SOLID186      2.859   0.000064
        2        20  SURF154       0.000   0.000000
        3        20  SURF154       0.000   0.000000
        4       190  SURF154       0.016   0.000082
        5        25  SURF154       0.000   0.000000
        6        25  SURF154       0.000   0.000000
        7        60  SURF154       0.016   0.000260
        8       290  SURF154       0.016   0.000054
        9       240  CONTA174      0.000   0.000000
       11       300  SURF154       0.000   0.000000
       12       160  SURF154       0.031   0.000195
       13       600  SURF154       0.000   0.000000

   *** NODAL LOAD CALCULATION TIMES
     TYPE    NUMBER   ENAME      TOTAL CP  AVE CP

        1     44665  SOLID186      0.109   0.000002
        2        20  SURF154       0.000   0.000000
        3        20  SURF154       0.000   0.000000
        4       190  SURF154       0.000   0.000000
        5        25  SURF154       0.000   0.000000
        6        25  SURF154       0.000   0.000000
        7        60  SURF154       0.000   0.000000
        8       290  SURF154       0.000   0.000000
        9       240  CONTA174      0.000   0.000000
       11       300  SURF154       0.000   0.000000
       12       160  SURF154       0.000   0.000000
       13       600  SURF154       0.000   0.000000
 *** LOAD STEP     1   SUBSTEP     1  COMPLETED.    CUM ITER =      1
 *** TIME =   1.00000         TIME INC =   1.00000      NEW TRIANG MATRIX


 *** ANSYS BINARY FILE STATISTICS
  BUFFER SIZE USED= 16384
       35.125 MB WRITTEN ON ELEMENT SAVED DATA FILE: file_Static22_0.esav
       32.500 MB WRITTEN ON RESULTS FILE: file_Static22_0.rst
 ****************************************************
 *************** FINISHED SOLVE FOR LS 1 *************

 FINISH SOLUTION PROCESSING


 ***** ROUTINE COMPLETED *****  CP =        70.047


 Socket ready!
 Connecting SUCCESS!

 Client

 Sending 'TOPO1'
 Received 000000C584EFDC80

 CLEAR ANSYS DATABASE AND RESTART

 Topology Optimization: released


 ANSYS Mechanical Enterprise                       

 CURRENT JOBNAME REDEFINED AS file_Static22



 *****  ANSYS SOLUTION ROUTINE  *****
 ******************* SOLVE FOR LS 1 ****************

 ERASE THE CURRENT DATABASE OUTPUT CONTROL TABLE.


 DO NOT COMBINE RESULT FILES (.rst, .rth, etc.) AFTER DISTRIBUTED PARALLEL SOLUTION

 *****  ANSYS SOLVE    COMMAND  *****

 *** WARNING ***                         CP =      70.344   TIME= 20:06:17
 Element shape checking is currently inactive.  Issue SHPP,ON or         
 SHPP,WARN to reactivate, if desired.                                    

 *** SELECTION OF ELEMENT TECHNOLOGIES FOR APPLICABLE ELEMENTS ***
      --- GIVE SUGGESTIONS AND RESET THE KEY OPTIONS ---

 ELEMENT TYPE    1 IS SOLID186. KEYOPT(2)=0 IS SUGGESTED AND HAS BEEN RESET.
  KEYOPT(1-12)=    0    0    0    0    0    0    0    0    0    0    0    0



 *** ANSYS - ENGINEERING ANALYSIS SYSTEM  RELEASE 2020 R2          20.2     ***
 DISTRIBUTED ANSYS Mechanical Enterprise                       

 01066031  VERSION=WINDOWS x64   20:06:18  JUN 19, 2021 CP=     70.984

 unsaved_project--Static Structural (A5)                                       



 *** WARNING ***                         CP =      71.016   TIME= 20:06:18
 Material number 2 (used by element 85322) should normally have at least 
 one MP or one TB type command associated with it.  Output of energy by  
 material may not be available.                                          
 The used degrees of freedom set is  UX   UY   UZ   ROTX ROTY ROTZ
 Please verify constraints (including rotational degrees of freedom)
  on the pilot node by yourself.
 ****************************************
  
  
  

  
  
     D I S T R I B U T E D   D O M A I N   D E C O M P O S E R
  
  ...Number of elements: 46596
  ...Number of nodes:    216564
  ...Decompose to 2 CPU domains
  ...Element load balance ratio =     1.010


 Topology Optimization: Multipliers prepared


 Topology Optimization: Multipliers updated


 SOLUTION MONITORING INFO IS WRITTEN TO FILE= file_Static22.mntr                                                                                                                                                                                                                                                  


 *** NOTE ***                            CP =      72.703   TIME= 20:06:18
 The PCG solver has automatically set the level of difficulty for this   
 model to 2.                                                             


                         ***********  PRECISE MASS SUMMARY  ***********

   TOTAL RIGID BODY MASS MATRIX ABOUT ORIGIN
               Translational mass               |   Coupled translational/rotational mass
         6.9900        0.0000        0.0000     |     0.0000      -0.29936E-01  -0.24443E-02
         0.0000        6.9900        0.0000     |    0.29936E-01    0.0000      -0.87641E-11
         0.0000        0.0000        6.9900     |    0.24443E-02   0.87641E-11    0.0000    
     ------------------------------------------ | ------------------------------------------
                                                |         Rotational mass (inertia)
                                                |    0.37439       0.17568E-12   0.12146E-11
                                                |    0.17568E-12   0.36784       0.18648E-03
                                                |    0.12146E-11   0.18648E-03   0.67341E-02

   TOTAL MASS =  6.9900    
     The mass principal axes coincide with the global Cartesian axes

   CENTER OF MASS (X,Y,Z)=  -0.12538E-11   0.34969E-03  -0.42827E-02

   TOTAL INERTIA ABOUT CENTER OF MASS
        0.37426       0.17261E-12   0.12522E-11
        0.17261E-12   0.36771       0.17601E-03
        0.12522E-11   0.17601E-03   0.67333E-02
     The inertia principal axes coincide with the global Cartesian axes


  *** MASS SUMMARY BY ELEMENT TYPE ***

  TYPE      MASS
     1   6.99000    

 Range of element maximum matrix coefficients in global coordinates
 Maximum = 1.549341017E+09 at element 44563.                             
 Minimum = 356268692 at element 43257.                                   

   *** ELEMENT MATRIX FORMULATION TIMES
     TYPE    NUMBER   ENAME      TOTAL CP  AVE CP

        1     44665  SOLID186      8.328   0.000186
        2        20  SURF154       0.000   0.000000
        3        20  SURF154       0.000   0.000000
        4       190  SURF154       0.000   0.000000
        5        25  SURF154       0.000   0.000000
        6        25  SURF154       0.000   0.000000
        7        60  SURF154       0.000   0.000000
        8       290  SURF154       0.000   0.000000
        9       240  CONTA174      0.000   0.000000
       10         1  TARGE170      0.000   0.000000
       11       300  SURF154       0.000   0.000000
       12       160  SURF154       0.000   0.000000
       13       600  SURF154       0.047   0.000078
 Time at end of element matrix formulation CP = 78.453125.               
 curEqn=  24129  totEqn=  24129 Job CP sec=     79.469
      Factor Done= 100% Factor Wall sec=      0.251 rate=   19594.0 Mflops
 Iteration=    10 Ratio=  0.103199     Limit=  1.000000E-08 Wall=     0.6
 Iteration=    55 Ratio=  8.541170E-04 Limit=  1.000000E-08 Wall=     4.0
 Iteration=   170 Ratio=  2.385382E-06 Limit=  1.000000E-08 Wall=    12.3

 DISTRIBUTED PCG SOLVER SOLUTION CONVERGED

 DISTRIBUTED PCG SOLVER SOLUTION STATISTICS

   NUMBER OF ITERATIONS=         271
   NUMBER OF EQUATIONS =      649698
   LEVEL OF CONVERGENCE=           1
   CALCULATED NORM     = 0.94841E-08
   SPECIFIED TOLERANCE = 0.10000E-07
   TOTAL CPU TIME (sec)=       20.86
   TOTAL WALL TIME(sec)=       21.01
   TOTAL MEMORY (GB)   =        0.56


   *** ELEMENT RESULT CALCULATION TIMES
     TYPE    NUMBER   ENAME      TOTAL CP  AVE CP

        1     44665  SOLID186      2.906   0.000065
        2        20  SURF154       0.000   0.000000
        3        20  SURF154       0.000   0.000000
        4       190  SURF154       0.000   0.000000
        5        25  SURF154       0.000   0.000000
        6        25  SURF154       0.000   0.000000
        7        60  SURF154       0.000   0.000000
        8       290  SURF154       0.000   0.000000
        9       240  CONTA174      0.000   0.000000
       11       300  SURF154       0.000   0.000000
       12       160  SURF154       0.000   0.000000
       13       600  SURF154       0.016   0.000026

   *** NODAL LOAD CALCULATION TIMES
     TYPE    NUMBER   ENAME      TOTAL CP  AVE CP

        1     44665  SOLID186      0.172   0.000004
        2        20  SURF154       0.000   0.000000
        3        20  SURF154       0.000   0.000000
        4       190  SURF154       0.000   0.000000
        5        25  SURF154       0.000   0.000000
        6        25  SURF154       0.000   0.000000
        7        60  SURF154       0.000   0.000000
        8       290  SURF154       0.000   0.000000
        9       240  CONTA174      0.000   0.000000
       11       300  SURF154       0.000   0.000000
       12       160  SURF154       0.016   0.000098
       13       600  SURF154       0.000   0.000000
 *** LOAD STEP     1   SUBSTEP     1  COMPLETED.    CUM ITER =      1
 *** TIME =   1.00000         TIME INC =   1.00000      NEW TRIANG MATRIX


 *** ANSYS BINARY FILE STATISTICS
  BUFFER SIZE USED= 16384
       35.125 MB WRITTEN ON ELEMENT SAVED DATA FILE: file_Static22_0.esav
       32.500 MB WRITTEN ON RESULTS FILE: file_Static22_0.rst
 ****************************************************
 *************** FINISHED SOLVE FOR LS 1 *************

 FINISH SOLUTION PROCESSING


 ***** ROUTINE COMPLETED *****  CP =       102.469


 Socket ready!
 Connecting SUCCESS!

 Client

 Sending 'TOPO1'
 Received 0000009FFDF8D7A0

 CLEAR ANSYS DATABASE AND RESTART

 Topology Optimization: released


 ANSYS Mechanical Enterprise                       

 CURRENT JOBNAME REDEFINED AS file_Static22



 *****  ANSYS SOLUTION ROUTINE  *****
 ******************* SOLVE FOR LS 1 ****************

 ERASE THE CURRENT DATABASE OUTPUT CONTROL TABLE.


 DO NOT COMBINE RESULT FILES (.rst, .rth, etc.) AFTER DISTRIBUTED PARALLEL SOLUTION

 *****  ANSYS SOLVE    COMMAND  *****

 *** WARNING ***                         CP =     102.781   TIME= 20:06:51
 Element shape checking is currently inactive.  Issue SHPP,ON or         
 SHPP,WARN to reactivate, if desired.                                    

 *** SELECTION OF ELEMENT TECHNOLOGIES FOR APPLICABLE ELEMENTS ***
      --- GIVE SUGGESTIONS AND RESET THE KEY OPTIONS ---

 ELEMENT TYPE    1 IS SOLID186. KEYOPT(2)=0 IS SUGGESTED AND HAS BEEN RESET.
  KEYOPT(1-12)=    0    0    0    0    0    0    0    0    0    0    0    0



 *** ANSYS - ENGINEERING ANALYSIS SYSTEM  RELEASE 2020 R2          20.2     ***
 DISTRIBUTED ANSYS Mechanical Enterprise                       

 01066031  VERSION=WINDOWS x64   20:06:51  JUN 19, 2021 CP=    103.406

 unsaved_project--Static Structural (A5)                                       



 *** WARNING ***                         CP =     103.438   TIME= 20:06:51
 Material number 2 (used by element 85322) should normally have at least 
 one MP or one TB type command associated with it.  Output of energy by  
 material may not be available.                                          
 The used degrees of freedom set is  UX   UY   UZ   ROTX ROTY ROTZ
 Please verify constraints (including rotational degrees of freedom)
  on the pilot node by yourself.
 ****************************************
  
  
  

  
  
     D I S T R I B U T E D   D O M A I N   D E C O M P O S E R
  
  ...Number of elements: 46596
  ...Number of nodes:    216564
  ...Decompose to 2 CPU domains
  ...Element load balance ratio =     1.010


 Topology Optimization: Multipliers prepared


 Topology Optimization: Multipliers updated


 SOLUTION MONITORING INFO IS WRITTEN TO FILE= file_Static22.mntr                                                                                                                                                                                                                                                  


 *** NOTE ***                            CP =     105.141   TIME= 20:06:52
 The PCG solver has automatically set the level of difficulty for this   
 model to 2.                                                             


                         ***********  PRECISE MASS SUMMARY  ***********

   TOTAL RIGID BODY MASS MATRIX ABOUT ORIGIN
               Translational mass               |   Coupled translational/rotational mass
         6.9900        0.0000        0.0000     |     0.0000      -0.29936E-01  -0.24443E-02
         0.0000        6.9900        0.0000     |    0.29936E-01    0.0000      -0.87641E-11
         0.0000        0.0000        6.9900     |    0.24443E-02   0.87641E-11    0.0000    
     ------------------------------------------ | ------------------------------------------
                                                |         Rotational mass (inertia)
                                                |    0.37439       0.17568E-12   0.12146E-11
                                                |    0.17568E-12   0.36784       0.18648E-03
                                                |    0.12146E-11   0.18648E-03   0.67341E-02

   TOTAL MASS =  6.9900    
     The mass principal axes coincide with the global Cartesian axes

   CENTER OF MASS (X,Y,Z)=  -0.12538E-11   0.34969E-03  -0.42827E-02

   TOTAL INERTIA ABOUT CENTER OF MASS
        0.37426       0.17261E-12   0.12522E-11
        0.17261E-12   0.36771       0.17601E-03
        0.12522E-11   0.17601E-03   0.67333E-02
     The inertia principal axes coincide with the global Cartesian axes


  *** MASS SUMMARY BY ELEMENT TYPE ***

  TYPE      MASS
     1   6.99000    

 Range of element maximum matrix coefficients in global coordinates
 Maximum = 1.549341017E+09 at element 44563.                             
 Minimum = 356268692 at element 43257.                                   

   *** ELEMENT MATRIX FORMULATION TIMES
     TYPE    NUMBER   ENAME      TOTAL CP  AVE CP

        1     44665  SOLID186      8.219   0.000184
        2        20  SURF154       0.000   0.000000
        3        20  SURF154       0.000   0.000000
        4       190  SURF154       0.047   0.000247
        5        25  SURF154       0.000   0.000000
        6        25  SURF154       0.000   0.000000
        7        60  SURF154       0.000   0.000000
        8       290  SURF154       0.016   0.000054
        9       240  CONTA174      0.000   0.000000
       10         1  TARGE170      0.000   0.000000
       11       300  SURF154       0.016   0.000052
       12       160  SURF154       0.000   0.000000
       13       600  SURF154       0.078   0.000130
 Time at end of element matrix formulation CP = 110.953125.              
 curEqn=  24129  totEqn=  24129 Job CP sec=    111.922
      Factor Done= 100% Factor Wall sec=      0.247 rate=   19845.6 Mflops
 Iteration=    10 Ratio=  0.103113     Limit=  1.000000E-08 Wall=     0.6
 Iteration=    80 Ratio=  9.408420E-04 Limit=  1.000000E-08 Wall=     5.6
 Iteration=   210 Ratio=  3.141695E-06 Limit=  1.000000E-08 Wall=    15.0

 DISTRIBUTED PCG SOLVER SOLUTION CONVERGED

 DISTRIBUTED PCG SOLVER SOLUTION STATISTICS

   NUMBER OF ITERATIONS=         317
   NUMBER OF EQUATIONS =      649698
   LEVEL OF CONVERGENCE=           1
   CALCULATED NORM     = 0.86900E-08
   SPECIFIED TOLERANCE = 0.10000E-07
   TOTAL CPU TIME (sec)=       26.64
   TOTAL WALL TIME(sec)=       26.78
   TOTAL MEMORY (GB)   =        0.56


   *** ELEMENT RESULT CALCULATION TIMES
     TYPE    NUMBER   ENAME      TOTAL CP  AVE CP

        1     44665  SOLID186      3.000   0.000067
        2        20  SURF154       0.000   0.000000
        3        20  SURF154       0.016   0.000781
        4       190  SURF154       0.016   0.000082
        5        25  SURF154       0.000   0.000000
        6        25  SURF154       0.000   0.000000
        7        60  SURF154       0.000   0.000000
        8       290  SURF154       0.016   0.000054
        9       240  CONTA174      0.000   0.000000
       11       300  SURF154       0.000   0.000000
       12       160  SURF154       0.000   0.000000
       13       600  SURF154       0.016   0.000026

   *** NODAL LOAD CALCULATION TIMES
     TYPE    NUMBER   ENAME      TOTAL CP  AVE CP

        1     44665  SOLID186      0.188   0.000004
        2        20  SURF154       0.000   0.000000
        3        20  SURF154       0.000   0.000000
        4       190  SURF154       0.000   0.000000
        5        25  SURF154       0.000   0.000000
        6        25  SURF154       0.000   0.000000
        7        60  SURF154       0.000   0.000000
        8       290  SURF154       0.000   0.000000
        9       240  CONTA174      0.000   0.000000
       11       300  SURF154       0.000   0.000000
       12       160  SURF154       0.000   0.000000
       13       600  SURF154       0.000   0.000000
 *** LOAD STEP     1   SUBSTEP     1  COMPLETED.    CUM ITER =      1
 *** TIME =   1.00000         TIME INC =   1.00000      NEW TRIANG MATRIX


 *** ANSYS BINARY FILE STATISTICS
  BUFFER SIZE USED= 16384
       35.125 MB WRITTEN ON ELEMENT SAVED DATA FILE: file_Static22_0.esav
       32.500 MB WRITTEN ON RESULTS FILE: file_Static22_0.rst
 ****************************************************
 *************** FINISHED SOLVE FOR LS 1 *************

 FINISH SOLUTION PROCESSING


 ***** ROUTINE COMPLETED *****  CP =       140.969


 Socket ready!
 Connecting SUCCESS!

 Client

 Sending 'TOPO1'
 Received 00000003C211DD50

 CLEAR ANSYS DATABASE AND RESTART

 Topology Optimization: released


 ANSYS Mechanical Enterprise                       

 CURRENT JOBNAME REDEFINED AS file_Static22



 *****  ANSYS SOLUTION ROUTINE  *****
 ******************* SOLVE FOR LS 1 ****************

 ERASE THE CURRENT DATABASE OUTPUT CONTROL TABLE.


 DO NOT COMBINE RESULT FILES (.rst, .rth, etc.) AFTER DISTRIBUTED PARALLEL SOLUTION

 *****  ANSYS SOLVE    COMMAND  *****

 *** WARNING ***                         CP =     141.359   TIME= 20:07:31
 Element shape checking is currently inactive.  Issue SHPP,ON or         
 SHPP,WARN to reactivate, if desired.                                    

 *** SELECTION OF ELEMENT TECHNOLOGIES FOR APPLICABLE ELEMENTS ***
      --- GIVE SUGGESTIONS AND RESET THE KEY OPTIONS ---

 ELEMENT TYPE    1 IS SOLID186. KEYOPT(2)=0 IS SUGGESTED AND HAS BEEN RESET.
  KEYOPT(1-12)=    0    0    0    0    0    0    0    0    0    0    0    0



 *** ANSYS - ENGINEERING ANALYSIS SYSTEM  RELEASE 2020 R2          20.2     ***
 DISTRIBUTED ANSYS Mechanical Enterprise                       

 01066031  VERSION=WINDOWS x64   20:07:31  JUN 19, 2021 CP=    142.016

 unsaved_project--Static Structural (A5)                                       



 *** WARNING ***                         CP =     142.047   TIME= 20:07:31
 Material number 2 (used by element 85322) should normally have at least 
 one MP or one TB type command associated with it.  Output of energy by  
 material may not be available.                                          
 The used degrees of freedom set is  UX   UY   UZ   ROTX ROTY ROTZ
 Please verify constraints (including rotational degrees of freedom)
  on the pilot node by yourself.
 ****************************************
  
  
  

  
  
     D I S T R I B U T E D   D O M A I N   D E C O M P O S E R
  
  ...Number of elements: 46596
  ...Number of nodes:    216564
  ...Decompose to 2 CPU domains
  ...Element load balance ratio =     1.010


 Topology Optimization: Multipliers prepared


 Topology Optimization: Multipliers updated


 SOLUTION MONITORING INFO IS WRITTEN TO FILE= file_Static22.mntr                                                                                                                                                                                                                                                  


 *** NOTE ***                            CP =     144.203   TIME= 20:07:32
 The PCG solver has automatically set the level of difficulty for this   
 model to 2.                                                             


                         ***********  PRECISE MASS SUMMARY  ***********

   TOTAL RIGID BODY MASS MATRIX ABOUT ORIGIN
               Translational mass               |   Coupled translational/rotational mass
         6.9900        0.0000        0.0000     |     0.0000      -0.29936E-01  -0.24443E-02
         0.0000        6.9900        0.0000     |    0.29936E-01    0.0000      -0.87641E-11
         0.0000        0.0000        6.9900     |    0.24443E-02   0.87641E-11    0.0000    
     ------------------------------------------ | ------------------------------------------
                                                |         Rotational mass (inertia)
                                                |    0.37439       0.17568E-12   0.12146E-11
                                                |    0.17568E-12   0.36784       0.18648E-03
                                                |    0.12146E-11   0.18648E-03   0.67341E-02

   TOTAL MASS =  6.9900    
     The mass principal axes coincide with the global Cartesian axes

   CENTER OF MASS (X,Y,Z)=  -0.12538E-11   0.34969E-03  -0.42827E-02

   TOTAL INERTIA ABOUT CENTER OF MASS
        0.37426       0.17261E-12   0.12522E-11
        0.17261E-12   0.36771       0.17601E-03
        0.12522E-11   0.17601E-03   0.67333E-02
     The inertia principal axes coincide with the global Cartesian axes


  *** MASS SUMMARY BY ELEMENT TYPE ***

  TYPE      MASS
     1   6.99000    

 Range of element maximum matrix coefficients in global coordinates
 Maximum = 1.549341017E+09 at element 44563.                             
 Minimum = 356268692 at element 43257.                                   

   *** ELEMENT MATRIX FORMULATION TIMES
     TYPE    NUMBER   ENAME      TOTAL CP  AVE CP

        1     44665  SOLID186      8.688   0.000195
        2        20  SURF154       0.000   0.000000
        3        20  SURF154       0.016   0.000781
        4       190  SURF154       0.000   0.000000
        5        25  SURF154       0.000   0.000000
        6        25  SURF154       0.000   0.000000
        7        60  SURF154       0.000   0.000000
        8       290  SURF154       0.000   0.000000
        9       240  CONTA174      0.000   0.000000
       10         1  TARGE170      0.000   0.000000
       11       300  SURF154       0.000   0.000000
       12       160  SURF154       0.000   0.000000
       13       600  SURF154       0.016   0.000026
 Time at end of element matrix formulation CP = 150.46875.               
 curEqn=  24129  totEqn=  24129 Job CP sec=    151.547
      Factor Done= 100% Factor Wall sec=      0.263 rate=   18639.0 Mflops
 Iteration=    10 Ratio=  0.103028     Limit=  1.000000E-08 Wall=     0.8
 Iteration=    55 Ratio=  8.020457E-04 Limit=  1.000000E-08 Wall=     5.3
 Iteration=   185 Ratio=  3.080289E-06 Limit=  1.000000E-08 Wall=    18.2

 DISTRIBUTED PCG SOLVER SOLUTION CONVERGED

 DISTRIBUTED PCG SOLVER SOLUTION STATISTICS

   NUMBER OF ITERATIONS=         281
   NUMBER OF EQUATIONS =      649698
   LEVEL OF CONVERGENCE=           1
   CALCULATED NORM     = 0.94514E-08
   SPECIFIED TOLERANCE = 0.10000E-07
   TOTAL CPU TIME (sec)=       29.73
   TOTAL WALL TIME(sec)=       29.76
   TOTAL MEMORY (GB)   =        0.56


   *** ELEMENT RESULT CALCULATION TIMES
     TYPE    NUMBER   ENAME      TOTAL CP  AVE CP

        1     44665  SOLID186      3.250   0.000073
        2        20  SURF154       0.000   0.000000
        3        20  SURF154       0.000   0.000000
        4       190  SURF154       0.000   0.000000
        5        25  SURF154       0.000   0.000000
        6        25  SURF154       0.000   0.000000
        7        60  SURF154       0.000   0.000000
        8       290  SURF154       0.000   0.000000
        9       240  CONTA174      0.000   0.000000
       11       300  SURF154       0.000   0.000000
       12       160  SURF154       0.000   0.000000
       13       600  SURF154       0.016   0.000026

   *** NODAL LOAD CALCULATION TIMES
     TYPE    NUMBER   ENAME      TOTAL CP  AVE CP

        1     44665  SOLID186      0.156   0.000003
        2        20  SURF154       0.000   0.000000
        3        20  SURF154       0.000   0.000000
        4       190  SURF154       0.000   0.000000
        5        25  SURF154       0.000   0.000000
        6        25  SURF154       0.000   0.000000
        7        60  SURF154       0.000   0.000000
        8       290  SURF154       0.000   0.000000
        9       240  CONTA174      0.000   0.000000
       11       300  SURF154       0.000   0.000000
       12       160  SURF154       0.000   0.000000
       13       600  SURF154       0.000   0.000000
 *** LOAD STEP     1   SUBSTEP     1  COMPLETED.    CUM ITER =      1
 *** TIME =   1.00000         TIME INC =   1.00000      NEW TRIANG MATRIX


 *** ANSYS BINARY FILE STATISTICS
  BUFFER SIZE USED= 16384
       35.125 MB WRITTEN ON ELEMENT SAVED DATA FILE: file_Static22_0.esav
       32.500 MB WRITTEN ON RESULTS FILE: file_Static22_0.rst
 ****************************************************
 *************** FINISHED SOLVE FOR LS 1 *************

 FINISH SOLUTION PROCESSING


 ***** ROUTINE COMPLETED *****  CP =       183.453


 Socket ready!
 Connecting SUCCESS!

 Client

 Sending 'TOPO1'
 Received 000000C824DEDE10

 CLEAR ANSYS DATABASE AND RESTART

 Topology Optimization: released


 ANSYS Mechanical Enterprise                       

 CURRENT JOBNAME REDEFINED AS file_Static22



 *****  ANSYS SOLUTION ROUTINE  *****
 ******************* SOLVE FOR LS 1 ****************

 ERASE THE CURRENT DATABASE OUTPUT CONTROL TABLE.


 DO NOT COMBINE RESULT FILES (.rst, .rth, etc.) AFTER DISTRIBUTED PARALLEL SOLUTION

 *****  ANSYS SOLVE    COMMAND  *****

 *** WARNING ***                         CP =     183.766   TIME= 20:08:14
 Element shape checking is currently inactive.  Issue SHPP,ON or         
 SHPP,WARN to reactivate, if desired.                                    

 *** SELECTION OF ELEMENT TECHNOLOGIES FOR APPLICABLE ELEMENTS ***
      --- GIVE SUGGESTIONS AND RESET THE KEY OPTIONS ---

 ELEMENT TYPE    1 IS SOLID186. KEYOPT(2)=0 IS SUGGESTED AND HAS BEEN RESET.
  KEYOPT(1-12)=    0    0    0    0    0    0    0    0    0    0    0    0



 *** ANSYS - ENGINEERING ANALYSIS SYSTEM  RELEASE 2020 R2          20.2     ***
 DISTRIBUTED ANSYS Mechanical Enterprise                       

 01066031  VERSION=WINDOWS x64   20:08:14  JUN 19, 2021 CP=    184.391

 unsaved_project--Static Structural (A5)                                       



 *** WARNING ***                         CP =     184.406   TIME= 20:08:14
 Material number 2 (used by element 85322) should normally have at least 
 one MP or one TB type command associated with it.  Output of energy by  
 material may not be available.                                          
 The used degrees of freedom set is  UX   UY   UZ   ROTX ROTY ROTZ
 Please verify constraints (including rotational degrees of freedom)
  on the pilot node by yourself.
 ****************************************
  
  
  

  
  
     D I S T R I B U T E D   D O M A I N   D E C O M P O S E R
  
  ...Number of elements: 46596
  ...Number of nodes:    216564
  ...Decompose to 2 CPU domains
  ...Element load balance ratio =     1.010


 Topology Optimization: Multipliers prepared


 Topology Optimization: Multipliers updated


 SOLUTION MONITORING INFO IS WRITTEN TO FILE= file_Static22.mntr                                                                                                                                                                                                                                                  


 *** NOTE ***                            CP =     186.109   TIME= 20:08:15
 The PCG solver has automatically set the level of difficulty for this   
 model to 2.                                                             


                         ***********  PRECISE MASS SUMMARY  ***********

   TOTAL RIGID BODY MASS MATRIX ABOUT ORIGIN
               Translational mass               |   Coupled translational/rotational mass
         6.9900        0.0000        0.0000     |     0.0000      -0.29936E-01  -0.24443E-02
         0.0000        6.9900        0.0000     |    0.29936E-01    0.0000      -0.87641E-11
         0.0000        0.0000        6.9900     |    0.24443E-02   0.87641E-11    0.0000    
     ------------------------------------------ | ------------------------------------------
                                                |         Rotational mass (inertia)
                                                |    0.37439       0.17568E-12   0.12146E-11
                                                |    0.17568E-12   0.36784       0.18648E-03
                                                |    0.12146E-11   0.18648E-03   0.67341E-02

   TOTAL MASS =  6.9900    
     The mass principal axes coincide with the global Cartesian axes

   CENTER OF MASS (X,Y,Z)=  -0.12538E-11   0.34969E-03  -0.42827E-02

   TOTAL INERTIA ABOUT CENTER OF MASS
        0.37426       0.17261E-12   0.12522E-11
        0.17261E-12   0.36771       0.17601E-03
        0.12522E-11   0.17601E-03   0.67333E-02
     The inertia principal axes coincide with the global Cartesian axes


  *** MASS SUMMARY BY ELEMENT TYPE ***

  TYPE      MASS
     1   6.99000    

 Range of element maximum matrix coefficients in global coordinates
 Maximum = 1.549341017E+09 at element 44563.                             
 Minimum = 356268692 at element 43257.                                   

   *** ELEMENT MATRIX FORMULATION TIMES
     TYPE    NUMBER   ENAME      TOTAL CP  AVE CP

        1     44665  SOLID186      8.328   0.000186
        2        20  SURF154       0.000   0.000000
        3        20  SURF154       0.000   0.000000
        4       190  SURF154       0.031   0.000164
        5        25  SURF154       0.000   0.000000
        6        25  SURF154       0.000   0.000000
        7        60  SURF154       0.000   0.000000
        8       290  SURF154       0.031   0.000108
        9       240  CONTA174      0.000   0.000000
       10         1  TARGE170      0.000   0.000000
       11       300  SURF154       0.016   0.000052
       12       160  SURF154       0.000   0.000000
       13       600  SURF154       0.031   0.000052
 Time at end of element matrix formulation CP = 191.921875.              
 curEqn=  24129  totEqn=  24129 Job CP sec=    192.984
      Factor Done= 100% Factor Wall sec=      0.267 rate=   18354.2 Mflops
 Iteration=    10 Ratio=  0.103034     Limit=  1.000000E-08 Wall=     0.6
 Iteration=    55 Ratio=  9.582341E-04 Limit=  1.000000E-08 Wall=     3.8
 Iteration=   180 Ratio=  2.846252E-06 Limit=  1.000000E-08 Wall=    12.8

 DISTRIBUTED PCG SOLVER SOLUTION CONVERGED

 DISTRIBUTED PCG SOLVER SOLUTION STATISTICS

   NUMBER OF ITERATIONS=         301
   NUMBER OF EQUATIONS =      649698
   LEVEL OF CONVERGENCE=           1
   CALCULATED NORM     = 0.94412E-08
   SPECIFIED TOLERANCE = 0.10000E-07
   TOTAL CPU TIME (sec)=       22.89
   TOTAL WALL TIME(sec)=       22.94
   TOTAL MEMORY (GB)   =        0.56


   *** ELEMENT RESULT CALCULATION TIMES
     TYPE    NUMBER   ENAME      TOTAL CP  AVE CP

        1     44665  SOLID186      2.938   0.000066
        2        20  SURF154       0.000   0.000000
        3        20  SURF154       0.000   0.000000
        4       190  SURF154       0.000   0.000000
        5        25  SURF154       0.000   0.000000
        6        25  SURF154       0.000   0.000000
        7        60  SURF154       0.000   0.000000
        8       290  SURF154       0.000   0.000000
        9       240  CONTA174      0.000   0.000000
       11       300  SURF154       0.000   0.000000
       12       160  SURF154       0.000   0.000000
       13       600  SURF154       0.016   0.000026

   *** NODAL LOAD CALCULATION TIMES
     TYPE    NUMBER   ENAME      TOTAL CP  AVE CP

        1     44665  SOLID186      0.141   0.000003
        2        20  SURF154       0.000   0.000000
        3        20  SURF154       0.000   0.000000
        4       190  SURF154       0.000   0.000000
        5        25  SURF154       0.000   0.000000
        6        25  SURF154       0.000   0.000000
        7        60  SURF154       0.000   0.000000
        8       290  SURF154       0.000   0.000000
        9       240  CONTA174      0.000   0.000000
       11       300  SURF154       0.000   0.000000
       12       160  SURF154       0.000   0.000000
       13       600  SURF154       0.016   0.000026
 *** LOAD STEP     1   SUBSTEP     1  COMPLETED.    CUM ITER =      1
 *** TIME =   1.00000         TIME INC =   1.00000      NEW TRIANG MATRIX


 *** ANSYS BINARY FILE STATISTICS
  BUFFER SIZE USED= 16384
       35.125 MB WRITTEN ON ELEMENT SAVED DATA FILE: file_Static22_0.esav
       32.500 MB WRITTEN ON RESULTS FILE: file_Static22_0.rst
 ****************************************************
 *************** FINISHED SOLVE FOR LS 1 *************

 FINISH SOLUTION PROCESSING


 ***** ROUTINE COMPLETED *****  CP =       217.828


 Socket ready!
 Connecting SUCCESS!

 Client

 Sending 'TOPO1'
 Received 0000002F7995DCE0

 CLEAR ANSYS DATABASE AND RESTART

 Topology Optimization: released


 ANSYS Mechanical Enterprise                       

 CURRENT JOBNAME REDEFINED AS file_Static22



 *****  ANSYS SOLUTION ROUTINE  *****
 ******************* SOLVE FOR LS 1 ****************

 ERASE THE CURRENT DATABASE OUTPUT CONTROL TABLE.


 DO NOT COMBINE RESULT FILES (.rst, .rth, etc.) AFTER DISTRIBUTED PARALLEL SOLUTION

 *****  ANSYS SOLVE    COMMAND  *****

 *** WARNING ***                         CP =     218.109   TIME= 20:08:49
 Element shape checking is currently inactive.  Issue SHPP,ON or         
 SHPP,WARN to reactivate, if desired.                                    

 *** SELECTION OF ELEMENT TECHNOLOGIES FOR APPLICABLE ELEMENTS ***
      --- GIVE SUGGESTIONS AND RESET THE KEY OPTIONS ---

 ELEMENT TYPE    1 IS SOLID186. KEYOPT(2)=0 IS SUGGESTED AND HAS BEEN RESET.
  KEYOPT(1-12)=    0    0    0    0    0    0    0    0    0    0    0    0



 *** ANSYS - ENGINEERING ANALYSIS SYSTEM  RELEASE 2020 R2          20.2     ***
 DISTRIBUTED ANSYS Mechanical Enterprise                       

 01066031  VERSION=WINDOWS x64   20:08:49  JUN 19, 2021 CP=    218.766

 unsaved_project--Static Structural (A5)                                       



 *** WARNING ***                         CP =     218.797   TIME= 20:08:49
 Material number 2 (used by element 85322) should normally have at least 
 one MP or one TB type command associated with it.  Output of energy by  
 material may not be available.                                          
 The used degrees of freedom set is  UX   UY   UZ   ROTX ROTY ROTZ
 Please verify constraints (including rotational degrees of freedom)
  on the pilot node by yourself.
 ****************************************
  
  
  

  
  
     D I S T R I B U T E D   D O M A I N   D E C O M P O S E R
  
  ...Number of elements: 46596
  ...Number of nodes:    216564
  ...Decompose to 2 CPU domains
  ...Element load balance ratio =     1.010


 Topology Optimization: Multipliers prepared


 Topology Optimization: Multipliers updated


 SOLUTION MONITORING INFO IS WRITTEN TO FILE= file_Static22.mntr                                                                                                                                                                                                                                                  


 *** NOTE ***                            CP =     220.438   TIME= 20:08:50
 The PCG solver has automatically set the level of difficulty for this   
 model to 2.                                                             


                         ***********  PRECISE MASS SUMMARY  ***********

   TOTAL RIGID BODY MASS MATRIX ABOUT ORIGIN
               Translational mass               |   Coupled translational/rotational mass
         6.9900        0.0000        0.0000     |     0.0000      -0.29936E-01  -0.24443E-02
         0.0000        6.9900        0.0000     |    0.29936E-01    0.0000      -0.87641E-11
         0.0000        0.0000        6.9900     |    0.24443E-02   0.87641E-11    0.0000    
     ------------------------------------------ | ------------------------------------------
                                                |         Rotational mass (inertia)
                                                |    0.37439       0.17568E-12   0.12146E-11
                                                |    0.17568E-12   0.36784       0.18648E-03
                                                |    0.12146E-11   0.18648E-03   0.67341E-02

   TOTAL MASS =  6.9900    
     The mass principal axes coincide with the global Cartesian axes

   CENTER OF MASS (X,Y,Z)=  -0.12538E-11   0.34969E-03  -0.42827E-02

   TOTAL INERTIA ABOUT CENTER OF MASS
        0.37426       0.17261E-12   0.12522E-11
        0.17261E-12   0.36771       0.17601E-03
        0.12522E-11   0.17601E-03   0.67333E-02
     The inertia principal axes coincide with the global Cartesian axes


  *** MASS SUMMARY BY ELEMENT TYPE ***

  TYPE      MASS
     1   6.99000    

 Range of element maximum matrix coefficients in global coordinates
 Maximum = 1.549341017E+09 at element 44563.                             
 Minimum = 356268692 at element 43257.                                   

   *** ELEMENT MATRIX FORMULATION TIMES
     TYPE    NUMBER   ENAME      TOTAL CP  AVE CP

        1     44665  SOLID186      8.250   0.000185
        2        20  SURF154       0.000   0.000000
        3        20  SURF154       0.000   0.000000
        4       190  SURF154       0.000   0.000000
        5        25  SURF154       0.000   0.000000
        6        25  SURF154       0.000   0.000000
        7        60  SURF154       0.000   0.000000
[...]
 The used degrees of freedom set is  UX   UY   UZ   ROTX ROTY ROTZ
 Please verify constraints (including rotational degrees of freedom)
  on the pilot node by yourself.
 ****************************************
  
  
  

  
  
     D I S T R I B U T E D   D O M A I N   D E C O M P O S E R
  
  ...Number of elements: 46596
  ...Number of nodes:    216564
  ...Decompose to 2 CPU domains
  ...Element load balance ratio =     1.010


 Topology Optimization: Multipliers prepared


 Topology Optimization: Multipliers updated


 SOLUTION MONITORING INFO IS WRITTEN TO FILE= file_Static22.mntr                                                                                                                                                                                                                                                  


 *** NOTE ***                            CP =     990.500   TIME= 20:22:18
 The PCG solver has automatically set the level of difficulty for this   
 model to 2.                                                             


                         ***********  PRECISE MASS SUMMARY  ***********

   TOTAL RIGID BODY MASS MATRIX ABOUT ORIGIN
               Translational mass               |   Coupled translational/rotational mass
         6.9900        0.0000        0.0000     |     0.0000      -0.29936E-01  -0.24443E-02
         0.0000        6.9900        0.0000     |    0.29936E-01    0.0000      -0.87641E-11
         0.0000        0.0000        6.9900     |    0.24443E-02   0.87641E-11    0.0000    
     ------------------------------------------ | ------------------------------------------
                                                |         Rotational mass (inertia)
                                                |    0.37439       0.17568E-12   0.12146E-11
                                                |    0.17568E-12   0.36784       0.18648E-03
                                                |    0.12146E-11   0.18648E-03   0.67341E-02

   TOTAL MASS =  6.9900    
     The mass principal axes coincide with the global Cartesian axes

   CENTER OF MASS (X,Y,Z)=  -0.12538E-11   0.34969E-03  -0.42827E-02

   TOTAL INERTIA ABOUT CENTER OF MASS
        0.37426       0.17261E-12   0.12522E-11
        0.17261E-12   0.36771       0.17601E-03
        0.12522E-11   0.17601E-03   0.67333E-02
     The inertia principal axes coincide with the global Cartesian axes


  *** MASS SUMMARY BY ELEMENT TYPE ***

  TYPE      MASS
     1   6.99000    

 Range of element maximum matrix coefficients in global coordinates
 Maximum = 1.549341017E+09 at element 44563.                             
 Minimum = 356268692 at element 43257.                                   

   *** ELEMENT MATRIX FORMULATION TIMES
     TYPE    NUMBER   ENAME      TOTAL CP  AVE CP

        1     44665  SOLID186      8.203   0.000184
        2        20  SURF154       0.000   0.000000
        3        20  SURF154       0.000   0.000000
        4       190  SURF154       0.000   0.000000
        5        25  SURF154       0.000   0.000000
        6        25  SURF154       0.000   0.000000
        7        60  SURF154       0.000   0.000000
        8       290  SURF154       0.031   0.000108
        9       240  CONTA174      0.016   0.000065
       10         1  TARGE170      0.000   0.000000
       11       300  SURF154       0.047   0.000156
       12       160  SURF154       0.016   0.000098
       13       600  SURF154       0.016   0.000026
 Time at end of element matrix formulation CP = 996.296875.              
 curEqn=  24129  totEqn=  24129 Job CP sec=    997.297
      Factor Done= 100% Factor Wall sec=      0.259 rate=   18960.4 Mflops
 Iteration=    10 Ratio=  0.102814     Limit=  1.000000E-08 Wall=     0.6
 Iteration=    55 Ratio=  9.054067E-04 Limit=  1.000000E-08 Wall=     3.9
 Iteration=   180 Ratio=  2.311582E-06 Limit=  1.000000E-08 Wall=    12.9

 DISTRIBUTED PCG SOLVER SOLUTION CONVERGED

 DISTRIBUTED PCG SOLVER SOLUTION STATISTICS

   NUMBER OF ITERATIONS=         285
   NUMBER OF EQUATIONS =      649698
   LEVEL OF CONVERGENCE=           1
   CALCULATED NORM     = 0.94659E-08
   SPECIFIED TOLERANCE = 0.10000E-07
   TOTAL CPU TIME (sec)=       21.81
   TOTAL WALL TIME(sec)=       21.83
   TOTAL MEMORY (GB)   =        0.56


   *** ELEMENT RESULT CALCULATION TIMES
     TYPE    NUMBER   ENAME      TOTAL CP  AVE CP

        1     44665  SOLID186      2.938   0.000066
        2        20  SURF154       0.000   0.000000
        3        20  SURF154       0.000   0.000000
        4       190  SURF154       0.000   0.000000
        5        25  SURF154       0.000   0.000000
        6        25  SURF154       0.000   0.000000
        7        60  SURF154       0.000   0.000000
        8       290  SURF154       0.000   0.000000
        9       240  CONTA174      0.000   0.000000
       11       300  SURF154       0.047   0.000156
       12       160  SURF154       0.000   0.000000
       13       600  SURF154       0.000   0.000000

   *** NODAL LOAD CALCULATION TIMES
     TYPE    NUMBER   ENAME      TOTAL CP  AVE CP

        1     44665  SOLID186      0.141   0.000003
        2        20  SURF154       0.000   0.000000
        3        20  SURF154       0.000   0.000000
        4       190  SURF154       0.000   0.000000
        5        25  SURF154       0.000   0.000000
        6        25  SURF154       0.000   0.000000
        7        60  SURF154       0.000   0.000000
        8       290  SURF154       0.000   0.000000
        9       240  CONTA174      0.000   0.000000
       11       300  SURF154       0.000   0.000000
       12       160  SURF154       0.000   0.000000
       13       600  SURF154       0.000   0.000000
 *** LOAD STEP     1   SUBSTEP     1  COMPLETED.    CUM ITER =      1
 *** TIME =   1.00000         TIME INC =   1.00000      NEW TRIANG MATRIX


 *** ANSYS BINARY FILE STATISTICS
  BUFFER SIZE USED= 16384
       35.125 MB WRITTEN ON ELEMENT SAVED DATA FILE: file_Static22_0.esav
       32.500 MB WRITTEN ON RESULTS FILE: file_Static22_0.rst
 ****************************************************
 *************** FINISHED SOLVE FOR LS 1 *************

 FINISH SOLUTION PROCESSING


 ***** ROUTINE COMPLETED *****  CP =      1021.078


 Socket ready!
 Connecting SUCCESS!

 Client

 Sending 'TOPO1'
 Received 00000005572FD870

 CLEAR ANSYS DATABASE AND RESTART

 Topology Optimization: released


 ANSYS Mechanical Enterprise                       

 CURRENT JOBNAME REDEFINED AS file_Static22



 *****  ANSYS SOLUTION ROUTINE  *****
 ******************* SOLVE FOR LS 1 ****************

 ERASE THE CURRENT DATABASE OUTPUT CONTROL TABLE.


 DO NOT COMBINE RESULT FILES (.rst, .rth, etc.) AFTER DISTRIBUTED PARALLEL SOLUTION

 *****  ANSYS SOLVE    COMMAND  *****

 *** WARNING ***                         CP =    1021.359   TIME= 20:22:51
 Element shape checking is currently inactive.  Issue SHPP,ON or         
 SHPP,WARN to reactivate, if desired.                                    

 *** SELECTION OF ELEMENT TECHNOLOGIES FOR APPLICABLE ELEMENTS ***
      --- GIVE SUGGESTIONS AND RESET THE KEY OPTIONS ---

 ELEMENT TYPE    1 IS SOLID186. KEYOPT(2)=0 IS SUGGESTED AND HAS BEEN RESET.
  KEYOPT(1-12)=    0    0    0    0    0    0    0    0    0    0    0    0



 *** ANSYS - ENGINEERING ANALYSIS SYSTEM  RELEASE 2020 R2          20.2     ***
 DISTRIBUTED ANSYS Mechanical Enterprise                       

 01066031  VERSION=WINDOWS x64   20:22:51  JUN 19, 2021 CP=   1021.969

 unsaved_project--Static Structural (A5)                                       



 *** WARNING ***                         CP =    1022.000   TIME= 20:22:51
 Material number 2 (used by element 85322) should normally have at least 
 one MP or one TB type command associated with it.  Output of energy by  
 material may not be available.                                          
 The used degrees of freedom set is  UX   UY   UZ   ROTX ROTY ROTZ
 Please verify constraints (including rotational degrees of freedom)
  on the pilot node by yourself.
 ****************************************
  
  
  

  
  
     D I S T R I B U T E D   D O M A I N   D E C O M P O S E R
  
  ...Number of elements: 46596
  ...Number of nodes:    216564
  ...Decompose to 2 CPU domains
  ...Element load balance ratio =     1.010


 Topology Optimization: Multipliers prepared


 Topology Optimization: Multipliers updated


 SOLUTION MONITORING INFO IS WRITTEN TO FILE= file_Static22.mntr                                                                                                                                                                                                                                                  


 *** NOTE ***                            CP =    1023.625   TIME= 20:22:52
 The PCG solver has automatically set the level of difficulty for this   
 model to 2.                                                             


                         ***********  PRECISE MASS SUMMARY  ***********

   TOTAL RIGID BODY MASS MATRIX ABOUT ORIGIN
               Translational mass               |   Coupled translational/rotational mass
         6.9900        0.0000        0.0000     |     0.0000      -0.29936E-01  -0.24443E-02
         0.0000        6.9900        0.0000     |    0.29936E-01    0.0000      -0.87641E-11
         0.0000        0.0000        6.9900     |    0.24443E-02   0.87641E-11    0.0000    
     ------------------------------------------ | ------------------------------------------
                                                |         Rotational mass (inertia)
                                                |    0.37439       0.17568E-12   0.12146E-11
                                                |    0.17568E-12   0.36784       0.18648E-03
                                                |    0.12146E-11   0.18648E-03   0.67341E-02

   TOTAL MASS =  6.9900    
     The mass principal axes coincide with the global Cartesian axes

   CENTER OF MASS (X,Y,Z)=  -0.12538E-11   0.34969E-03  -0.42827E-02

   TOTAL INERTIA ABOUT CENTER OF MASS
        0.37426       0.17261E-12   0.12522E-11
        0.17261E-12   0.36771       0.17601E-03
        0.12522E-11   0.17601E-03   0.67333E-02
     The inertia principal axes coincide with the global Cartesian axes


  *** MASS SUMMARY BY ELEMENT TYPE ***

  TYPE      MASS
     1   6.99000    

 Range of element maximum matrix coefficients in global coordinates
 Maximum = 1.549341017E+09 at element 44563.                             
 Minimum = 356268692 at element 43257.                                   

   *** ELEMENT MATRIX FORMULATION TIMES
     TYPE    NUMBER   ENAME      TOTAL CP  AVE CP

        1     44665  SOLID186      8.703   0.000195
        2        20  SURF154       0.000   0.000000
        3        20  SURF154       0.016   0.000781
        4       190  SURF154       0.031   0.000164
        5        25  SURF154       0.000   0.000000
        6        25  SURF154       0.000   0.000000
        7        60  SURF154       0.000   0.000000
        8       290  SURF154       0.016   0.000054
        9       240  CONTA174      0.000   0.000000
       10         1  TARGE170      0.000   0.000000
       11       300  SURF154       0.016   0.000052
       12       160  SURF154       0.000   0.000000
       13       600  SURF154       0.016   0.000026
 Time at end of element matrix formulation CP = 1029.60938.              
 curEqn=  24129  totEqn=  24129 Job CP sec=   1030.609
      Factor Done= 100% Factor Wall sec=      0.264 rate=   18563.5 Mflops
 Iteration=    10 Ratio=  0.102813     Limit=  1.000000E-08 Wall=     0.6
 Iteration=    55 Ratio=  9.025083E-04 Limit=  1.000000E-08 Wall=     3.8
 Iteration=   180 Ratio=  2.336509E-06 Limit=  1.000000E-08 Wall=    13.0

 DISTRIBUTED PCG SOLVER SOLUTION CONVERGED

 DISTRIBUTED PCG SOLVER SOLUTION STATISTICS

   NUMBER OF ITERATIONS=         285
   NUMBER OF EQUATIONS =      649698
   LEVEL OF CONVERGENCE=           1
   CALCULATED NORM     = 0.94367E-08
   SPECIFIED TOLERANCE = 0.10000E-07
   TOTAL CPU TIME (sec)=       21.89
   TOTAL WALL TIME(sec)=       21.91
   TOTAL MEMORY (GB)   =        0.56


   *** ELEMENT RESULT CALCULATION TIMES
     TYPE    NUMBER   ENAME      TOTAL CP  AVE CP

        1     44665  SOLID186      2.875   0.000064
        2        20  SURF154       0.000   0.000000
        3        20  SURF154       0.000   0.000000
        4       190  SURF154       0.000   0.000000
        5        25  SURF154       0.000   0.000000
        6        25  SURF154       0.000   0.000000
        7        60  SURF154       0.000   0.000000
        8       290  SURF154       0.016   0.000054
        9       240  CONTA174      0.000   0.000000
       11       300  SURF154       0.000   0.000000
       12       160  SURF154       0.000   0.000000
       13       600  SURF154       0.016   0.000026

   *** NODAL LOAD CALCULATION TIMES
     TYPE    NUMBER   ENAME      TOTAL CP  AVE CP

        1     44665  SOLID186      0.250   0.000006
        2        20  SURF154       0.000   0.000000
        3        20  SURF154       0.000   0.000000
        4       190  SURF154       0.000   0.000000
        5        25  SURF154       0.000   0.000000
        6        25  SURF154       0.000   0.000000
        7        60  SURF154       0.000   0.000000
        8       290  SURF154       0.000   0.000000
        9       240  CONTA174      0.000   0.000000
       11       300  SURF154       0.000   0.000000
       12       160  SURF154       0.000   0.000000
       13       600  SURF154       0.000   0.000000
 *** LOAD STEP     1   SUBSTEP     1  COMPLETED.    CUM ITER =      1
 *** TIME =   1.00000         TIME INC =   1.00000      NEW TRIANG MATRIX


 *** ANSYS BINARY FILE STATISTICS
  BUFFER SIZE USED= 16384
       35.125 MB WRITTEN ON ELEMENT SAVED DATA FILE: file_Static22_0.esav
       32.500 MB WRITTEN ON RESULTS FILE: file_Static22_0.rst
 ****************************************************
 *************** FINISHED SOLVE FOR LS 1 *************

 FINISH SOLUTION PROCESSING


 ***** ROUTINE COMPLETED *****  CP =      1054.547


 Socket ready!
 Connecting SUCCESS!

 Client

 Sending 'TOPO1'
 Received 00000076B6AFDC80

 CURRENT JOBNAME REDEFINED AS file_Static22

 *** NOTE ***                            CP =    1054.594   TIME= 20:23:25
 The defined jobname (file_Static22) contains a numeric value (0->9) for 
 the last character.  Therefore, when creating local solution files      
 Distributed ANSYS will append an underscore to the jobname prior to     
 appending the MPI rank.                                                 

 *** ANSYS - ENGINEERING ANALYSIS SYSTEM  RELEASE 2020 R2          20.2     ***
 DISTRIBUTED ANSYS Mechanical Enterprise                       

 01066031  VERSION=WINDOWS x64   20:23:25  JUN 19, 2021 CP=   1054.594

 unsaved_project--Static Structural (A5)                                       



   ***** ANSYS BINARY FILE DUMP *****



               ***** AUX02 FILE COMBINE UTILITY *****


 COMBINE STRUCTURAL RESULT FILES


 ***** ROUTINE COMPLETED *****  CP =      1054.969



 EXIT ANSYS WITHOUT SAVING DATABASE


 NUMBER OF WARNING MESSAGES ENCOUNTERED=         64
 NUMBER OF ERROR   MESSAGES ENCOUNTERED=          0

 Topology Optimization: released


 *** NOTE ***                            CP =    1055.250   TIME= 20:23:26
 The solution for the current simulation was performed using 2 cores.    
 The parallel performance of this simulation on this hardware indicates  
 that this simulation would benefit from using additional CPU cores.     
 Consider using more CPU cores, which may require additional HPC         
 licenses, when running this simulation again on the same hardware.      

+--------- D I S T R I B U T E D   A N S Y S   S T A T I S T I C S ------------+

Release: 2020 R2            Build: 20.2       Update: UP20200601   Platform: WINDOWS x64 
Date Run: 06/19/2021   Time: 20:23     Process ID: 11896
Operating System: Windows Server 2019  (Build: 17763)

Processor Model: Intel(R) Xeon(R) Gold 6148 CPU @ 2.40GHz

Compiler: Intel(R) FORTRAN Compiler Version 19.0.0  (Build: 20190206)
          Intel(R) C/C++ Compiler Version 19.0.0  (Build: 20190206)
          Intel(R) Math Kernel Library Version 2020.0.0 Product Build 20191125

Number of machines requested            :    1
Total number of cores available         :    8
Number of physical cores available      :    8
Number of processes requested           :    2
Number of threads per process requested :    1
Total number of cores requested         :    2 (Distributed Memory Parallel)               
MPI Type: INTELMPI
MPI Version: Intel(R) MPI Library 2018 Update 3 for Windows* OS


GPU Acceleration: Not Requested

Job Name: file_Static22_0
Input File: ds.dat

  Core                Machine Name   Working Directory
 -----------------------------------------------------
     0   ccc-s19rd1-01.floridapoly   C:\Users\mlydon7629\AppData\Local\Temp\11\WB_CCC-S19RD1-01_mlydon7629_15308_2\_ProjectScratch\ScrD0E4
     1   ccc-s19rd1-01.floridapoly   C:\Users\mlydon7629\AppData\Local\Temp\11\WB_CCC-S19RD1-01_mlydon7629_15308_2\_ProjectScratch\ScrD0E4
 
Latency time from master to core     1 =    1.504 microseconds
 
Communication speed from master to core     1 =  4923.17 MB/sec

Total CPU time for main thread                    :     1020.9 seconds
Total CPU time summed for all threads             :     1055.2 seconds

Elapsed time spent obtaining a license            :        0.8 seconds
Elapsed time spent pre-processing model (/PREP7)  :        0.0 seconds
Elapsed time spent solution - preprocessing       :       47.0 seconds
Elapsed time spent computing solution             :      981.7 seconds
Elapsed time spent solution - postprocessing      :        4.4 seconds
Elapsed time spent post-processing model (/POST1) :        0.0 seconds
 
Equation solver used                              :            PCG (symmetric)
Equation solver computational rate                :        4.6 Gflops

Maximum total memory used                         :     1438.0 MB
Maximum total memory allocated                    :     3136.0 MB
Total physical memory available                   :         36 GB

Total amount of I/O written to disk               :        0.4 GB
Total amount of I/O read from disk                :        0.3 GB

+------ E N D   D I S T R I B U T E D   A N S Y S   S T A T I S T I C S -------+


 *---------------------------------------------------------------------------*
 |                                                                           |
 |                       DISTRIBUTED ANSYS RUN COMPLETED                     |
 |                                                                           |
 |---------------------------------------------------------------------------|
 |                                                                           |
 | Ansys 2020 R2               Build 20.2         UP20200601     WINDOWS x64 |
 |                                                                           |
 |---------------------------------------------------------------------------|
 |                                                                           |
 | Database Requested(-db)  1024 MB    Scratch Memory Requested      1024 MB |
 | Maximum Database Used     109 MB    Maximum Scratch Memory Used    697 MB |
 |                                                                           |
 |---------------------------------------------------------------------------|
 |                                                                           |
 |        CP Time      (sec) =       1055.250       Time  =  20:23:26        |
 |        Elapsed Time (sec) =       1107.000       Date  =  06/19/2021      |
 |                                                                           |
 *---------------------------------------------------------------------------*
